nohup: ignoring input
/*---------------------------------------------------------------------------*\
  =========                 |
  \\      /  F ield         | OpenFOAM: The Open Source CFD Toolbox
   \\    /   O peration     | Website:  https://openfoam.org
    \\  /    A nd           | Version:  7
     \\/     M anipulation  |
\*---------------------------------------------------------------------------*/
Build  : 7-3bcbaf946ae9
Exec   : treeFoam -parallel
Date   : Mar 10 2022
Time   : 21:29:30
Host   : "foote"
PID    : 1180902
I/O    : uncollated
Case   : /home/runnanfu/OpenFOAM/runnanfu-7/run/onlyOneTree/LoD3/broadleaf_im_summer
nProcs : 4
Slaves : 
3
(
"foote.1180903"
"foote.1180904"
"foote.1180905"
)

Pstream initialized with:
    floatTransfer      : 0
    nProcsSimpleSum    : 0
    commsType          : nonBlocking
    polling iterations : 0
sigFpe : Enabling floating point exception trapping (FOAM_SIGFPE).
fileModificationChecking : Monitoring run-time modified files using timeStampMaster (fileModificationSkew 10)
allowSystemOperations : Allowing user-supplied system call operations

// * * * * * * * * * * * * * * * * * * * * * * * * * * * * * * * * * * * * * //
Create time

--> FOAM Warning : 
    From function void* Foam::dlOpen(const Foam::fileName&, bool)
    in file POSIX.C at line 1251
    dlopen error : treeFoam.so: cannot open shared object file: No such file or directory
--> FOAM Warning : 
    From function bool Foam::dlLibraryTable::open(const Foam::fileName&, bool)
    in file db/dynamicLibrary/dlLibraryTable/dlLibraryTable.C at line 105
    could not load "treeFoam.so"
Create mesh for time = 2


SIMPLE: No convergence criteria found

Reading field p

Reading field U

Reading field leafAreaDensity from time 2

Reading field plantCd from time 2

Reading/calculating face flux field phi

Selecting incompressible transport model Newtonian
Selecting turbulence model type RAS
Selecting RAS turbulence model treekEpsilon
treekEpsilonCoeffs
{
    Cmu             0.09;
    C1              1.44;
    C2              1.92;
    sigmaEps        1.11;
    betaP           1;
    betaD           5.03;
    C4              0.78;
    C5              0.78;
    C3              0;
    sigmak          1;
}

No MRF models present

No finite volume options present

Starting time loop

Reading surface description:
    yNormal
    z15Normal
    pedestrianH

Time = 3

smoothSolver:  Solving for Ux, Initial residual = 1, Final residual = 0.0358905, No Iterations 4
smoothSolver:  Solving for Uy, Initial residual = 1, Final residual = 0.0369387, No Iterations 2
smoothSolver:  Solving for Uz, Initial residual = 1, Final residual = 0.0316925, No Iterations 4
GAMG:  Solving for p, Initial residual = 1, Final residual = 0.0324566, No Iterations 6
time step continuity errors : sum local = 0.000279261, global = -0.000165196, cumulative = -0.000165196
smoothSolver:  Solving for epsilon, Initial residual = 0.205667, Final residual = 0.0140603, No Iterations 6
smoothSolver:  Solving for k, Initial residual = 1, Final residual = 0.0851018, No Iterations 8
ExecutionTime = 0.38 s  ClockTime = 1 s

Time = 4

smoothSolver:  Solving for Ux, Initial residual = 0.257625, Final residual = 0.00699291, No Iterations 4
smoothSolver:  Solving for Uy, Initial residual = 0.210971, Final residual = 0.00477947, No Iterations 4
smoothSolver:  Solving for Uz, Initial residual = 0.331282, Final residual = 0.00900549, No Iterations 4
GAMG:  Solving for p, Initial residual = 0.229341, Final residual = 0.00710404, No Iterations 10
time step continuity errors : sum local = 0.000413677, global = -8.99759e-05, cumulative = -0.000255172
smoothSolver:  Solving for epsilon, Initial residual = 0.0542364, Final residual = 0.00291051, No Iterations 4
smoothSolver:  Solving for k, Initial residual = 0.529748, Final residual = 0.0514294, No Iterations 6
ExecutionTime = 0.6 s  ClockTime = 1 s

Time = 5

smoothSolver:  Solving for Ux, Initial residual = 0.248571, Final residual = 0.00588437, No Iterations 4
smoothSolver:  Solving for Uy, Initial residual = 0.299756, Final residual = 0.00497555, No Iterations 4
smoothSolver:  Solving for Uz, Initial residual = 0.343317, Final residual = 0.00921855, No Iterations 4
GAMG:  Solving for p, Initial residual = 0.127705, Final residual = 0.00296306, No Iterations 5
time step continuity errors : sum local = 0.000507258, global = -0.00016565, cumulative = -0.000420822
smoothSolver:  Solving for epsilon, Initial residual = 0.0554603, Final residual = 0.00527829, No Iterations 6
smoothSolver:  Solving for k, Initial residual = 0.454187, Final residual = 0.0319696, No Iterations 8
ExecutionTime = 0.8 s  ClockTime = 1 s

Time = 6

smoothSolver:  Solving for Ux, Initial residual = 0.236307, Final residual = 0.00556607, No Iterations 4
smoothSolver:  Solving for Uy, Initial residual = 0.218163, Final residual = 0.00388255, No Iterations 4
smoothSolver:  Solving for Uz, Initial residual = 0.180618, Final residual = 0.00463316, No Iterations 4
GAMG:  Solving for p, Initial residual = 0.108208, Final residual = 0.00271918, No Iterations 6
time step continuity errors : sum local = 0.000644477, global = 0.000238463, cumulative = -0.000182359
smoothSolver:  Solving for epsilon, Initial residual = 0.104928, Final residual = 0.00836432, No Iterations 8
smoothSolver:  Solving for k, Initial residual = 0.36866, Final residual = 0.0290001, No Iterations 8
ExecutionTime = 1.03 s  ClockTime = 1 s

Time = 7

smoothSolver:  Solving for Ux, Initial residual = 0.245472, Final residual = 0.00431012, No Iterations 4
smoothSolver:  Solving for Uy, Initial residual = 0.0949741, Final residual = 0.00194394, No Iterations 4
smoothSolver:  Solving for Uz, Initial residual = 0.19519, Final residual = 0.00466912, No Iterations 4
GAMG:  Solving for p, Initial residual = 0.155802, Final residual = 0.00434714, No Iterations 8
time step continuity errors : sum local = 0.000478904, global = 0.000138133, cumulative = -4.4226e-05
smoothSolver:  Solving for epsilon, Initial residual = 0.10066, Final residual = 0.00875422, No Iterations 8
smoothSolver:  Solving for k, Initial residual = 0.230446, Final residual = 0.0210521, No Iterations 8
ExecutionTime = 1.25 s  ClockTime = 2 s

Time = 8

smoothSolver:  Solving for Ux, Initial residual = 0.194754, Final residual = 0.00307341, No Iterations 4
smoothSolver:  Solving for Uy, Initial residual = 0.0486536, Final residual = 0.00435962, No Iterations 2
smoothSolver:  Solving for Uz, Initial residual = 0.32335, Final residual = 0.00780628, No Iterations 4
GAMG:  Solving for p, Initial residual = 0.27554, Final residual = 0.00688115, No Iterations 6
time step continuity errors : sum local = 0.000395566, global = 0.000127234, cumulative = 8.30084e-05
smoothSolver:  Solving for epsilon, Initial residual = 0.0614879, Final residual = 0.00499456, No Iterations 8
smoothSolver:  Solving for k, Initial residual = 0.134132, Final residual = 0.0112151, No Iterations 8
ExecutionTime = 1.46 s  ClockTime = 2 s

Time = 9

smoothSolver:  Solving for Ux, Initial residual = 0.138072, Final residual = 0.012825, No Iterations 2
smoothSolver:  Solving for Uy, Initial residual = 0.144734, Final residual = 0.00255805, No Iterations 4
smoothSolver:  Solving for Uz, Initial residual = 0.271297, Final residual = 0.00537603, No Iterations 4
GAMG:  Solving for p, Initial residual = 0.154686, Final residual = 0.00717719, No Iterations 4
time step continuity errors : sum local = 0.000782931, global = -0.00032942, cumulative = -0.000246412
smoothSolver:  Solving for epsilon, Initial residual = 0.0679873, Final residual = 0.00528285, No Iterations 6
smoothSolver:  Solving for k, Initial residual = 0.116654, Final residual = 0.0107686, No Iterations 6
ExecutionTime = 1.65 s  ClockTime = 2 s

Time = 10

smoothSolver:  Solving for Ux, Initial residual = 0.161362, Final residual = 0.0161219, No Iterations 2
smoothSolver:  Solving for Uy, Initial residual = 0.119918, Final residual = 0.00219831, No Iterations 4
smoothSolver:  Solving for Uz, Initial residual = 0.253176, Final residual = 0.00927952, No Iterations 4
GAMG:  Solving for p, Initial residual = 0.162829, Final residual = 0.00724732, No Iterations 6
time step continuity errors : sum local = 0.000612227, global = -0.000204432, cumulative = -0.000450844
smoothSolver:  Solving for epsilon, Initial residual = 0.0608285, Final residual = 0.00572033, No Iterations 6
smoothSolver:  Solving for k, Initial residual = 0.0902206, Final residual = 0.00559396, No Iterations 8
ExecutionTime = 1.86 s  ClockTime = 2 s

Time = 11

smoothSolver:  Solving for Ux, Initial residual = 0.248546, Final residual = 0.00412771, No Iterations 4
smoothSolver:  Solving for Uy, Initial residual = 0.0298958, Final residual = 0.0026525, No Iterations 2
smoothSolver:  Solving for Uz, Initial residual = 0.2593, Final residual = 0.00875484, No Iterations 4
GAMG:  Solving for p, Initial residual = 0.512378, Final residual = 0.0239852, No Iterations 6
time step continuity errors : sum local = 0.000439385, global = -0.000139619, cumulative = -0.000590463
smoothSolver:  Solving for epsilon, Initial residual = 0.0441209, Final residual = 0.00237897, No Iterations 8
smoothSolver:  Solving for k, Initial residual = 0.0598089, Final residual = 0.00436416, No Iterations 8
ExecutionTime = 2.07 s  ClockTime = 2 s

Time = 12

smoothSolver:  Solving for Ux, Initial residual = 0.219845, Final residual = 0.0212938, No Iterations 2
smoothSolver:  Solving for Uy, Initial residual = 0.0799805, Final residual = 0.00169265, No Iterations 4
smoothSolver:  Solving for Uz, Initial residual = 0.196134, Final residual = 0.00369856, No Iterations 4
GAMG:  Solving for p, Initial residual = 0.160483, Final residual = 0.00706636, No Iterations 3
time step continuity errors : sum local = 0.000431178, global = -7.76381e-05, cumulative = -0.000668101
smoothSolver:  Solving for epsilon, Initial residual = 0.0378104, Final residual = 0.00277908, No Iterations 8
smoothSolver:  Solving for k, Initial residual = 0.0530043, Final residual = 0.00472678, No Iterations 8
ExecutionTime = 2.26 s  ClockTime = 3 s

Time = 13

smoothSolver:  Solving for Ux, Initial residual = 0.15811, Final residual = 0.00268345, No Iterations 4
smoothSolver:  Solving for Uy, Initial residual = 0.069818, Final residual = 0.00150043, No Iterations 4
smoothSolver:  Solving for Uz, Initial residual = 0.230496, Final residual = 0.009643, No Iterations 4
GAMG:  Solving for p, Initial residual = 0.137004, Final residual = 0.00326596, No Iterations 6
time step continuity errors : sum local = 0.000222933, global = 8.35616e-05, cumulative = -0.00058454
smoothSolver:  Solving for epsilon, Initial residual = 0.0413075, Final residual = 0.00388512, No Iterations 8
smoothSolver:  Solving for k, Initial residual = 0.0559651, Final residual = 0.00353481, No Iterations 10
ExecutionTime = 2.47 s  ClockTime = 3 s

Time = 14

smoothSolver:  Solving for Ux, Initial residual = 0.164109, Final residual = 0.00375571, No Iterations 4
smoothSolver:  Solving for Uy, Initial residual = 0.0276498, Final residual = 0.000695259, No Iterations 4
smoothSolver:  Solving for Uz, Initial residual = 0.243788, Final residual = 0.0103119, No Iterations 4
GAMG:  Solving for p, Initial residual = 0.238683, Final residual = 0.00953701, No Iterations 6
time step continuity errors : sum local = 0.000262272, global = 8.79047e-05, cumulative = -0.000496635
smoothSolver:  Solving for epsilon, Initial residual = 0.033142, Final residual = 0.00202019, No Iterations 10
smoothSolver:  Solving for k, Initial residual = 0.0435673, Final residual = 0.00296598, No Iterations 10
ExecutionTime = 2.69 s  ClockTime = 3 s

Time = 15

smoothSolver:  Solving for Ux, Initial residual = 0.114591, Final residual = 0.00254829, No Iterations 4
smoothSolver:  Solving for Uy, Initial residual = 0.0240691, Final residual = 0.000382422, No Iterations 4
smoothSolver:  Solving for Uz, Initial residual = 0.16835, Final residual = 0.00363984, No Iterations 4
GAMG:  Solving for p, Initial residual = 0.25872, Final residual = 0.00513833, No Iterations 5
time step continuity errors : sum local = 0.000125914, global = 4.60884e-05, cumulative = -0.000450547
smoothSolver:  Solving for epsilon, Initial residual = 0.0268845, Final residual = 0.00200831, No Iterations 8
smoothSolver:  Solving for k, Initial residual = 0.0355182, Final residual = 0.00313809, No Iterations 8
ExecutionTime = 2.89 s  ClockTime = 3 s

Time = 16

smoothSolver:  Solving for Ux, Initial residual = 0.0795495, Final residual = 0.0078549, No Iterations 2
smoothSolver:  Solving for Uy, Initial residual = 0.0348626, Final residual = 0.000599362, No Iterations 4
smoothSolver:  Solving for Uz, Initial residual = 0.196006, Final residual = 0.00745151, No Iterations 4
GAMG:  Solving for p, Initial residual = 0.197133, Final residual = 0.00836441, No Iterations 4
time step continuity errors : sum local = 0.000268271, global = -9.92102e-05, cumulative = -0.000549757
smoothSolver:  Solving for epsilon, Initial residual = 0.0282179, Final residual = 0.00175636, No Iterations 8
smoothSolver:  Solving for k, Initial residual = 0.0349937, Final residual = 0.00295191, No Iterations 8
ExecutionTime = 3.1 s  ClockTime = 3 s

Time = 17

smoothSolver:  Solving for Ux, Initial residual = 0.115208, Final residual = 0.00240402, No Iterations 4
smoothSolver:  Solving for Uy, Initial residual = 0.0230588, Final residual = 0.000412378, No Iterations 4
smoothSolver:  Solving for Uz, Initial residual = 0.207177, Final residual = 0.0090235, No Iterations 4
GAMG:  Solving for p, Initial residual = 0.211367, Final residual = 0.00532271, No Iterations 6
time step continuity errors : sum local = 0.000125496, global = -4.88397e-05, cumulative = -0.000598597
smoothSolver:  Solving for epsilon, Initial residual = 0.0243547, Final residual = 0.00169246, No Iterations 8
smoothSolver:  Solving for k, Initial residual = 0.0318369, Final residual = 0.00285648, No Iterations 8
ExecutionTime = 3.31 s  ClockTime = 4 s

Time = 18

smoothSolver:  Solving for Ux, Initial residual = 0.12286, Final residual = 0.00229085, No Iterations 4
smoothSolver:  Solving for Uy, Initial residual = 0.0123051, Final residual = 0.00030909, No Iterations 4
smoothSolver:  Solving for Uz, Initial residual = 0.109151, Final residual = 0.0024371, No Iterations 4
GAMG:  Solving for p, Initial residual = 0.321358, Final residual = 0.0160158, No Iterations 4
time step continuity errors : sum local = 0.000184614, global = -8.27512e-05, cumulative = -0.000681348
smoothSolver:  Solving for epsilon, Initial residual = 0.0186748, Final residual = 0.00142327, No Iterations 8
smoothSolver:  Solving for k, Initial residual = 0.0252631, Final residual = 0.00239482, No Iterations 8
ExecutionTime = 3.51 s  ClockTime = 4 s

Time = 19

smoothSolver:  Solving for Ux, Initial residual = 0.0994738, Final residual = 0.00158142, No Iterations 4
smoothSolver:  Solving for Uy, Initial residual = 0.0214792, Final residual = 0.000523985, No Iterations 4
smoothSolver:  Solving for Uz, Initial residual = 0.132791, Final residual = 0.00523584, No Iterations 4
GAMG:  Solving for p, Initial residual = 0.16678, Final residual = 0.00420398, No Iterations 4
time step continuity errors : sum local = 9.85729e-05, global = 2.77195e-05, cumulative = -0.000653628
smoothSolver:  Solving for epsilon, Initial residual = 0.0162468, Final residual = 0.00129072, No Iterations 8
smoothSolver:  Solving for k, Initial residual = 0.0214667, Final residual = 0.00208707, No Iterations 8
ExecutionTime = 3.72 s  ClockTime = 4 s

Time = 20

smoothSolver:  Solving for Ux, Initial residual = 0.0782007, Final residual = 0.00177044, No Iterations 4
smoothSolver:  Solving for Uy, Initial residual = 0.0205546, Final residual = 0.000526629, No Iterations 4
smoothSolver:  Solving for Uz, Initial residual = 0.141922, Final residual = 0.00648545, No Iterations 4
GAMG:  Solving for p, Initial residual = 0.15131, Final residual = 0.00718996, No Iterations 4
time step continuity errors : sum local = 0.00017286, global = 6.13154e-05, cumulative = -0.000592313
smoothSolver:  Solving for epsilon, Initial residual = 0.0147359, Final residual = 0.00133189, No Iterations 8
smoothSolver:  Solving for k, Initial residual = 0.019573, Final residual = 0.00126247, No Iterations 10
ExecutionTime = 3.91 s  ClockTime = 4 s

Time = 21

smoothSolver:  Solving for Ux, Initial residual = 0.0821364, Final residual = 0.00218124, No Iterations 4
smoothSolver:  Solving for Uy, Initial residual = 0.0121466, Final residual = 0.000367553, No Iterations 4
smoothSolver:  Solving for Uz, Initial residual = 0.0983356, Final residual = 0.00362261, No Iterations 4
GAMG:  Solving for p, Initial residual = 0.184385, Final residual = 0.00409235, No Iterations 6
time step continuity errors : sum local = 6.14593e-05, global = 2.2965e-05, cumulative = -0.000569348
smoothSolver:  Solving for epsilon, Initial residual = 0.0129959, Final residual = 0.00123904, No Iterations 8
smoothSolver:  Solving for k, Initial residual = 0.0170065, Final residual = 0.00115403, No Iterations 10
ExecutionTime = 4.12 s  ClockTime = 4 s

Time = 22

smoothSolver:  Solving for Ux, Initial residual = 0.0634523, Final residual = 0.00151517, No Iterations 4
smoothSolver:  Solving for Uy, Initial residual = 0.00868338, Final residual = 0.000227341, No Iterations 4
smoothSolver:  Solving for Uz, Initial residual = 0.0853729, Final residual = 0.00298252, No Iterations 4
GAMG:  Solving for p, Initial residual = 0.466958, Final residual = 0.00863326, No Iterations 5
time step continuity errors : sum local = 4.66668e-05, global = 1.86866e-05, cumulative = -0.000550661
smoothSolver:  Solving for epsilon, Initial residual = 0.0127048, Final residual = 0.00113435, No Iterations 8
smoothSolver:  Solving for k, Initial residual = 0.0171494, Final residual = 0.00108536, No Iterations 10
ExecutionTime = 4.33 s  ClockTime = 5 s

Time = 23

smoothSolver:  Solving for Ux, Initial residual = 0.0517871, Final residual = 0.00114162, No Iterations 4
smoothSolver:  Solving for Uy, Initial residual = 0.0102861, Final residual = 0.000209281, No Iterations 4
smoothSolver:  Solving for Uz, Initial residual = 0.0977388, Final residual = 0.00409729, No Iterations 4
GAMG:  Solving for p, Initial residual = 0.253171, Final residual = 0.00452501, No Iterations 4
time step continuity errors : sum local = 4.63666e-05, global = -1.93371e-05, cumulative = -0.000569998
smoothSolver:  Solving for epsilon, Initial residual = 0.013207, Final residual = 0.00115297, No Iterations 8
smoothSolver:  Solving for k, Initial residual = 0.0184654, Final residual = 0.0011497, No Iterations 10
ExecutionTime = 4.53 s  ClockTime = 5 s

Time = 24

smoothSolver:  Solving for Ux, Initial residual = 0.0564457, Final residual = 0.00127684, No Iterations 4
smoothSolver:  Solving for Uy, Initial residual = 0.0081025, Final residual = 0.000185696, No Iterations 4
smoothSolver:  Solving for Uz, Initial residual = 0.0665294, Final residual = 0.00222675, No Iterations 4
GAMG:  Solving for p, Initial residual = 0.261801, Final residual = 0.0124852, No Iterations 4
time step continuity errors : sum local = 0.000103913, global = -4.16452e-05, cumulative = -0.000611644
smoothSolver:  Solving for epsilon, Initial residual = 0.012961, Final residual = 0.0011581, No Iterations 8
smoothSolver:  Solving for k, Initial residual = 0.0186384, Final residual = 0.00119943, No Iterations 10
ExecutionTime = 4.72 s  ClockTime = 5 s

Time = 25

smoothSolver:  Solving for Ux, Initial residual = 0.0588773, Final residual = 0.0012481, No Iterations 4
smoothSolver:  Solving for Uy, Initial residual = 0.00547964, Final residual = 0.000177852, No Iterations 4
smoothSolver:  Solving for Uz, Initial residual = 0.0557164, Final residual = 0.00154953, No Iterations 4
GAMG:  Solving for p, Initial residual = 0.411318, Final residual = 0.0144082, No Iterations 4
time step continuity errors : sum local = 5.90228e-05, global = -2.85841e-05, cumulative = -0.000640228
smoothSolver:  Solving for epsilon, Initial residual = 0.0117566, Final residual = 0.00109708, No Iterations 8
smoothSolver:  Solving for k, Initial residual = 0.0174092, Final residual = 0.00117543, No Iterations 10
ExecutionTime = 4.91 s  ClockTime = 5 s

Time = 26

smoothSolver:  Solving for Ux, Initial residual = 0.049814, Final residual = 0.00100405, No Iterations 4
smoothSolver:  Solving for Uy, Initial residual = 0.00684158, Final residual = 0.000218734, No Iterations 4
smoothSolver:  Solving for Uz, Initial residual = 0.0681662, Final residual = 0.00270094, No Iterations 4
GAMG:  Solving for p, Initial residual = 0.173436, Final residual = 0.00817867, No Iterations 3
time step continuity errors : sum local = 7.74534e-05, global = -3.82438e-05, cumulative = -0.000678471
smoothSolver:  Solving for epsilon, Initial residual = 0.0103982, Final residual = 0.00101036, No Iterations 8
smoothSolver:  Solving for k, Initial residual = 0.0156943, Final residual = 0.00110725, No Iterations 10
ExecutionTime = 5.11 s  ClockTime = 5 s

Time = 27

smoothSolver:  Solving for Ux, Initial residual = 0.037368, Final residual = 0.000964175, No Iterations 4
smoothSolver:  Solving for Uy, Initial residual = 0.00766404, Final residual = 0.000238695, No Iterations 4
smoothSolver:  Solving for Uz, Initial residual = 0.0541303, Final residual = 0.00200453, No Iterations 4
GAMG:  Solving for p, Initial residual = 0.149672, Final residual = 0.00282038, No Iterations 4
time step continuity errors : sum local = 2.919e-05, global = 1.24553e-05, cumulative = -0.000666016
smoothSolver:  Solving for epsilon, Initial residual = 0.00938816, Final residual = 0.000933601, No Iterations 8
smoothSolver:  Solving for k, Initial residual = 0.0143718, Final residual = 0.00104508, No Iterations 10
ExecutionTime = 5.31 s  ClockTime = 6 s

Time = 28

smoothSolver:  Solving for Ux, Initial residual = 0.0382956, Final residual = 0.00106133, No Iterations 4
smoothSolver:  Solving for Uy, Initial residual = 0.00671569, Final residual = 0.000225041, No Iterations 4
smoothSolver:  Solving for Uz, Initial residual = 0.0366081, Final residual = 0.000929725, No Iterations 4
GAMG:  Solving for p, Initial residual = 0.133847, Final residual = 0.00510349, No Iterations 4
time step continuity errors : sum local = 4.96581e-05, global = 2.32815e-05, cumulative = -0.000642735
smoothSolver:  Solving for epsilon, Initial residual = 0.00876962, Final residual = 0.000515922, No Iterations 10
smoothSolver:  Solving for k, Initial residual = 0.0137595, Final residual = 0.00101262, No Iterations 10
ExecutionTime = 5.52 s  ClockTime = 6 s

Time = 29

smoothSolver:  Solving for Ux, Initial residual = 0.0394377, Final residual = 0.00106297, No Iterations 4
smoothSolver:  Solving for Uy, Initial residual = 0.00460729, Final residual = 0.0001778, No Iterations 4
smoothSolver:  Solving for Uz, Initial residual = 0.0370834, Final residual = 0.00118658, No Iterations 4
GAMG:  Solving for p, Initial residual = 0.177924, Final residual = 0.00506092, No Iterations 4
time step continuity errors : sum local = 3.16166e-05, global = 1.36992e-05, cumulative = -0.000629036
smoothSolver:  Solving for epsilon, Initial residual = 0.00852211, Final residual = 0.00083798, No Iterations 8
smoothSolver:  Solving for k, Initial residual = 0.0140467, Final residual = 0.0010264, No Iterations 10
ExecutionTime = 5.73 s  ClockTime = 6 s

Time = 30

smoothSolver:  Solving for Ux, Initial residual = 0.0330378, Final residual = 0.000846819, No Iterations 4
smoothSolver:  Solving for Uy, Initial residual = 0.00410214, Final residual = 0.00014624, No Iterations 4
smoothSolver:  Solving for Uz, Initial residual = 0.0317915, Final residual = 0.000932257, No Iterations 4
GAMG:  Solving for p, Initial residual = 0.27412, Final residual = 0.0133304, No Iterations 3
time step continuity errors : sum local = 4.92517e-05, global = 2.9451e-05, cumulative = -0.000599585
smoothSolver:  Solving for epsilon, Initial residual = 0.0085961, Final residual = 0.000829179, No Iterations 8
smoothSolver:  Solving for k, Initial residual = 0.014825, Final residual = 0.00108195, No Iterations 10
ExecutionTime = 5.92 s  ClockTime = 6 s

Time = 31

smoothSolver:  Solving for Ux, Initial residual = 0.0284943, Final residual = 0.000700094, No Iterations 4
smoothSolver:  Solving for Uy, Initial residual = 0.00420463, Final residual = 0.000132171, No Iterations 4
smoothSolver:  Solving for Uz, Initial residual = 0.0284939, Final residual = 0.000680043, No Iterations 4
GAMG:  Solving for p, Initial residual = 0.418086, Final residual = 0.0207997, No Iterations 3
time step continuity errors : sum local = 4.65015e-05, global = 6.56049e-07, cumulative = -0.000598928
smoothSolver:  Solving for epsilon, Initial residual = 0.00866198, Final residual = 0.000838595, No Iterations 8
smoothSolver:  Solving for k, Initial residual = 0.0155078, Final residual = 0.00114289, No Iterations 10
ExecutionTime = 6.11 s  ClockTime = 6 s

Time = 32

smoothSolver:  Solving for Ux, Initial residual = 0.0259627, Final residual = 0.000678782, No Iterations 4
smoothSolver:  Solving for Uy, Initial residual = 0.00385174, Final residual = 0.000124633, No Iterations 4
smoothSolver:  Solving for Uz, Initial residual = 0.0300223, Final residual = 0.000786489, No Iterations 4
GAMG:  Solving for p, Initial residual = 0.406845, Final residual = 0.00814631, No Iterations 5
time step continuity errors : sum local = 1.68431e-05, global = -5.8218e-06, cumulative = -0.00060475
smoothSolver:  Solving for epsilon, Initial residual = 0.00858123, Final residual = 0.000847232, No Iterations 8
smoothSolver:  Solving for k, Initial residual = 0.0158513, Final residual = 0.00119071, No Iterations 10
ExecutionTime = 6.31 s  ClockTime = 7 s

Time = 33

smoothSolver:  Solving for Ux, Initial residual = 0.0253715, Final residual = 0.000682163, No Iterations 4
smoothSolver:  Solving for Uy, Initial residual = 0.00334886, Final residual = 0.00012209, No Iterations 4
smoothSolver:  Solving for Uz, Initial residual = 0.0292309, Final residual = 0.00069869, No Iterations 4
GAMG:  Solving for p, Initial residual = 0.251332, Final residual = 0.00544862, No Iterations 5
time step continuity errors : sum local = 1.5826e-05, global = -5.50532e-06, cumulative = -0.000610256
smoothSolver:  Solving for epsilon, Initial residual = 0.00837709, Final residual = 0.000494158, No Iterations 10
smoothSolver:  Solving for k, Initial residual = 0.0158008, Final residual = 0.00120639, No Iterations 10
ExecutionTime = 6.51 s  ClockTime = 7 s

Time = 34

smoothSolver:  Solving for Ux, Initial residual = 0.0236856, Final residual = 0.000686796, No Iterations 4
smoothSolver:  Solving for Uy, Initial residual = 0.00337202, Final residual = 0.000130711, No Iterations 4
smoothSolver:  Solving for Uz, Initial residual = 0.0261782, Final residual = 0.000552998, No Iterations 4
GAMG:  Solving for p, Initial residual = 0.153334, Final residual = 0.00306161, No Iterations 5
time step continuity errors : sum local = 1.30526e-05, global = -4.90134e-06, cumulative = -0.000615157
smoothSolver:  Solving for epsilon, Initial residual = 0.00800453, Final residual = 0.000483178, No Iterations 10
smoothSolver:  Solving for k, Initial residual = 0.0154606, Final residual = 0.00119652, No Iterations 10
ExecutionTime = 6.72 s  ClockTime = 7 s

Time = 35

smoothSolver:  Solving for Ux, Initial residual = 0.0219731, Final residual = 0.000723189, No Iterations 4
smoothSolver:  Solving for Uy, Initial residual = 0.00358035, Final residual = 0.000135006, No Iterations 4
smoothSolver:  Solving for Uz, Initial residual = 0.0231805, Final residual = 0.000523206, No Iterations 4
GAMG:  Solving for p, Initial residual = 0.125478, Final residual = 0.00578009, No Iterations 3
time step continuity errors : sum local = 2.754e-05, global = -5.14121e-06, cumulative = -0.000620298
smoothSolver:  Solving for epsilon, Initial residual = 0.00768898, Final residual = 0.000470872, No Iterations 10
smoothSolver:  Solving for k, Initial residual = 0.0151125, Final residual = 0.00118102, No Iterations 10
ExecutionTime = 6.91 s  ClockTime = 7 s

Time = 36

smoothSolver:  Solving for Ux, Initial residual = 0.0207824, Final residual = 0.000709038, No Iterations 4
smoothSolver:  Solving for Uy, Initial residual = 0.00343284, Final residual = 0.00013417, No Iterations 4
smoothSolver:  Solving for Uz, Initial residual = 0.0195997, Final residual = 0.000427318, No Iterations 4
GAMG:  Solving for p, Initial residual = 0.111143, Final residual = 0.00517407, No Iterations 3
time step continuity errors : sum local = 2.48205e-05, global = 3.00771e-06, cumulative = -0.00061729
smoothSolver:  Solving for epsilon, Initial residual = 0.00750849, Final residual = 0.000462873, No Iterations 10
smoothSolver:  Solving for k, Initial residual = 0.0149154, Final residual = 0.00117229, No Iterations 10
ExecutionTime = 7.1 s  ClockTime = 7 s

Time = 37

smoothSolver:  Solving for Ux, Initial residual = 0.0204768, Final residual = 0.000674437, No Iterations 4
smoothSolver:  Solving for Uy, Initial residual = 0.00301113, Final residual = 0.0001235, No Iterations 4
smoothSolver:  Solving for Uz, Initial residual = 0.0187223, Final residual = 0.000458208, No Iterations 4
GAMG:  Solving for p, Initial residual = 0.113664, Final residual = 0.00209312, No Iterations 5
time step continuity errors : sum local = 8.76774e-06, global = 3.00324e-06, cumulative = -0.000614287
smoothSolver:  Solving for epsilon, Initial residual = 0.00746683, Final residual = 0.000460442, No Iterations 10
smoothSolver:  Solving for k, Initial residual = 0.014892, Final residual = 0.00117532, No Iterations 10
ExecutionTime = 7.31 s  ClockTime = 8 s

Time = 38

smoothSolver:  Solving for Ux, Initial residual = 0.0188517, Final residual = 0.000595742, No Iterations 4
smoothSolver:  Solving for Uy, Initial residual = 0.00279596, Final residual = 0.000115233, No Iterations 4
smoothSolver:  Solving for Uz, Initial residual = 0.0184307, Final residual = 0.000477458, No Iterations 4
GAMG:  Solving for p, Initial residual = 0.124662, Final residual = 0.00248116, No Iterations 5
time step continuity errors : sum local = 8.64032e-06, global = 3.08875e-06, cumulative = -0.000611198
smoothSolver:  Solving for epsilon, Initial residual = 0.00747447, Final residual = 0.000462539, No Iterations 10
smoothSolver:  Solving for k, Initial residual = 0.0150003, Final residual = 0.00118993, No Iterations 10
ExecutionTime = 7.51 s  ClockTime = 8 s

Time = 39

smoothSolver:  Solving for Ux, Initial residual = 0.0173559, Final residual = 0.000536546, No Iterations 4
smoothSolver:  Solving for Uy, Initial residual = 0.00279005, Final residual = 0.000107006, No Iterations 4
smoothSolver:  Solving for Uz, Initial residual = 0.0173933, Final residual = 0.000387829, No Iterations 4
GAMG:  Solving for p, Initial residual = 0.146209, Final residual = 0.00673491, No Iterations 3
time step continuity errors : sum local = 1.82563e-05, global = 6.42673e-06, cumulative = -0.000604772
smoothSolver:  Solving for epsilon, Initial residual = 0.00749479, Final residual = 0.00046651, No Iterations 10
smoothSolver:  Solving for k, Initial residual = 0.0151442, Final residual = 0.00120768, No Iterations 10
ExecutionTime = 7.7 s  ClockTime = 8 s

Time = 40

smoothSolver:  Solving for Ux, Initial residual = 0.0166515, Final residual = 0.000522679, No Iterations 4
smoothSolver:  Solving for Uy, Initial residual = 0.00275387, Final residual = 0.000104173, No Iterations 4
smoothSolver:  Solving for Uz, Initial residual = 0.0170555, Final residual = 0.000337655, No Iterations 4
GAMG:  Solving for p, Initial residual = 0.140562, Final residual = 0.00625385, No Iterations 3
time step continuity errors : sum local = 1.56091e-05, global = 2.28551e-06, cumulative = -0.000602486
smoothSolver:  Solving for epsilon, Initial residual = 0.00749076, Final residual = 0.000470901, No Iterations 10
smoothSolver:  Solving for k, Initial residual = 0.0152182, Final residual = 0.00121976, No Iterations 10
ExecutionTime = 7.9 s  ClockTime = 8 s

Time = 41

smoothSolver:  Solving for Ux, Initial residual = 0.0164133, Final residual = 0.000527371, No Iterations 4
smoothSolver:  Solving for Uy, Initial residual = 0.00273544, Final residual = 0.000101179, No Iterations 4
smoothSolver:  Solving for Uz, Initial residual = 0.0171039, Final residual = 0.000338488, No Iterations 4
GAMG:  Solving for p, Initial residual = 0.128536, Final residual = 0.00505987, No Iterations 3
time step continuity errors : sum local = 1.23014e-05, global = -5.24995e-06, cumulative = -0.000607736
smoothSolver:  Solving for epsilon, Initial residual = 0.0074567, Final residual = 0.00047419, No Iterations 10
smoothSolver:  Solving for k, Initial residual = 0.0152032, Final residual = 0.00122262, No Iterations 10
ExecutionTime = 8.09 s  ClockTime = 8 s

Time = 42

smoothSolver:  Solving for Ux, Initial residual = 0.016274, Final residual = 0.000534705, No Iterations 4
smoothSolver:  Solving for Uy, Initial residual = 0.002693, Final residual = 0.000101135, No Iterations 4
smoothSolver:  Solving for Uz, Initial residual = 0.0168796, Final residual = 0.000337381, No Iterations 4
GAMG:  Solving for p, Initial residual = 0.108756, Final residual = 0.00534626, No Iterations 3
time step continuity errors : sum local = 1.40237e-05, global = -5.08723e-06, cumulative = -0.000612823
smoothSolver:  Solving for epsilon, Initial residual = 0.00740641, Final residual = 0.000476972, No Iterations 10
smoothSolver:  Solving for k, Initial residual = 0.0151011, Final residual = 0.00121794, No Iterations 10
ExecutionTime = 8.29 s  ClockTime = 9 s

Time = 43

smoothSolver:  Solving for Ux, Initial residual = 0.0158191, Final residual = 0.000532072, No Iterations 4
smoothSolver:  Solving for Uy, Initial residual = 0.00267343, Final residual = 0.000100065, No Iterations 4
smoothSolver:  Solving for Uz, Initial residual = 0.0161661, Final residual = 0.00033937, No Iterations 4
GAMG:  Solving for p, Initial residual = 0.0950983, Final residual = 0.0018475, No Iterations 5
time step continuity errors : sum local = 5.09855e-06, global = -1.56299e-06, cumulative = -0.000614386
smoothSolver:  Solving for epsilon, Initial residual = 0.00735278, Final residual = 0.000478777, No Iterations 10
smoothSolver:  Solving for k, Initial residual = 0.0149257, Final residual = 0.0012045, No Iterations 10
ExecutionTime = 8.49 s  ClockTime = 9 s

Time = 44

smoothSolver:  Solving for Ux, Initial residual = 0.0154777, Final residual = 0.000530068, No Iterations 4
smoothSolver:  Solving for Uy, Initial residual = 0.00263399, Final residual = 0.000101143, No Iterations 4
smoothSolver:  Solving for Uz, Initial residual = 0.0156888, Final residual = 0.000366986, No Iterations 4
GAMG:  Solving for p, Initial residual = 0.0785688, Final residual = 0.00328035, No Iterations 3
time step continuity errors : sum local = 9.86853e-06, global = -2.20237e-06, cumulative = -0.000616589
smoothSolver:  Solving for epsilon, Initial residual = 0.00729463, Final residual = 0.00047904, No Iterations 10
smoothSolver:  Solving for k, Initial residual = 0.0146851, Final residual = 0.00118609, No Iterations 10
ExecutionTime = 8.68 s  ClockTime = 9 s

Time = 45

smoothSolver:  Solving for Ux, Initial residual = 0.0149114, Final residual = 0.000514137, No Iterations 4
smoothSolver:  Solving for Uy, Initial residual = 0.00258702, Final residual = 9.92978e-05, No Iterations 4
smoothSolver:  Solving for Uz, Initial residual = 0.0145784, Final residual = 0.000343373, No Iterations 4
GAMG:  Solving for p, Initial residual = 0.0697005, Final residual = 0.00283157, No Iterations 3
time step continuity errors : sum local = 8.4736e-06, global = -3.2596e-07, cumulative = -0.000616915
smoothSolver:  Solving for epsilon, Initial residual = 0.00724056, Final residual = 0.00047734, No Iterations 10
smoothSolver:  Solving for k, Initial residual = 0.0144513, Final residual = 0.00116479, No Iterations 10
ExecutionTime = 8.88 s  ClockTime = 9 s

Time = 46

smoothSolver:  Solving for Ux, Initial residual = 0.014265, Final residual = 0.000495492, No Iterations 4
smoothSolver:  Solving for Uy, Initial residual = 0.00253911, Final residual = 9.7991e-05, No Iterations 4
smoothSolver:  Solving for Uz, Initial residual = 0.0135376, Final residual = 0.00029957, No Iterations 4
GAMG:  Solving for p, Initial residual = 0.0636934, Final residual = 0.00232268, No Iterations 3
time step continuity errors : sum local = 6.85085e-06, global = -4.64571e-07, cumulative = -0.000617379
smoothSolver:  Solving for epsilon, Initial residual = 0.00718791, Final residual = 0.000475565, No Iterations 10
smoothSolver:  Solving for k, Initial residual = 0.0142117, Final residual = 0.00114401, No Iterations 10
ExecutionTime = 9.08 s  ClockTime = 9 s

Time = 47

smoothSolver:  Solving for Ux, Initial residual = 0.0135229, Final residual = 0.000476049, No Iterations 4
smoothSolver:  Solving for Uy, Initial residual = 0.00250401, Final residual = 9.46693e-05, No Iterations 4
smoothSolver:  Solving for Uz, Initial residual = 0.0130677, Final residual = 0.000271203, No Iterations 4
GAMG:  Solving for p, Initial residual = 0.0623094, Final residual = 0.00256197, No Iterations 3
time step continuity errors : sum local = 7.03345e-06, global = 2.22562e-06, cumulative = -0.000615154
smoothSolver:  Solving for epsilon, Initial residual = 0.00712977, Final residual = 0.000472505, No Iterations 10
smoothSolver:  Solving for k, Initial residual = 0.0139974, Final residual = 0.00112274, No Iterations 10
ExecutionTime = 9.27 s  ClockTime = 10 s

Time = 48

smoothSolver:  Solving for Ux, Initial residual = 0.0130234, Final residual = 0.000462795, No Iterations 4
smoothSolver:  Solving for Uy, Initial residual = 0.00247247, Final residual = 9.27363e-05, No Iterations 4
smoothSolver:  Solving for Uz, Initial residual = 0.0131033, Final residual = 0.000268827, No Iterations 4
GAMG:  Solving for p, Initial residual = 0.0588977, Final residual = 0.00235715, No Iterations 3
time step continuity errors : sum local = 6.20191e-06, global = 2.51314e-06, cumulative = -0.000612641
smoothSolver:  Solving for epsilon, Initial residual = 0.00705359, Final residual = 0.000469256, No Iterations 10
smoothSolver:  Solving for k, Initial residual = 0.0137623, Final residual = 0.00110302, No Iterations 10
ExecutionTime = 9.46 s  ClockTime = 10 s

Time = 49

smoothSolver:  Solving for Ux, Initial residual = 0.0127766, Final residual = 0.000452436, No Iterations 4
smoothSolver:  Solving for Uy, Initial residual = 0.00245765, Final residual = 9.00228e-05, No Iterations 4
smoothSolver:  Solving for Uz, Initial residual = 0.0132377, Final residual = 0.000267559, No Iterations 4
GAMG:  Solving for p, Initial residual = 0.0560915, Final residual = 0.00254392, No Iterations 3
time step continuity errors : sum local = 6.33522e-06, global = -6.98487e-07, cumulative = -0.000613339
smoothSolver:  Solving for epsilon, Initial residual = 0.00697006, Final residual = 0.000464286, No Iterations 10
smoothSolver:  Solving for k, Initial residual = 0.0135375, Final residual = 0.0010811, No Iterations 10
ExecutionTime = 9.65 s  ClockTime = 10 s

Time = 50

smoothSolver:  Solving for Ux, Initial residual = 0.01283, Final residual = 0.000447273, No Iterations 4
smoothSolver:  Solving for Uy, Initial residual = 0.00244751, Final residual = 8.86847e-05, No Iterations 4
smoothSolver:  Solving for Uz, Initial residual = 0.0133013, Final residual = 0.000266666, No Iterations 4
GAMG:  Solving for p, Initial residual = 0.0526224, Final residual = 0.00157112, No Iterations 4
time step continuity errors : sum local = 3.84422e-06, global = 9.08938e-07, cumulative = -0.00061243
smoothSolver:  Solving for epsilon, Initial residual = 0.00686553, Final residual = 0.000458839, No Iterations 10
smoothSolver:  Solving for k, Initial residual = 0.0132882, Final residual = 0.00105979, No Iterations 10
ExecutionTime = 9.83 s  ClockTime = 10 s

Time = 51

smoothSolver:  Solving for Ux, Initial residual = 0.0128702, Final residual = 0.000444175, No Iterations 4
smoothSolver:  Solving for Uy, Initial residual = 0.00243476, Final residual = 8.70863e-05, No Iterations 4
smoothSolver:  Solving for Uz, Initial residual = 0.013125, Final residual = 0.000260477, No Iterations 4
GAMG:  Solving for p, Initial residual = 0.0500984, Final residual = 0.00219154, No Iterations 4
time step continuity errors : sum local = 5.32224e-06, global = 1.0574e-06, cumulative = -0.000611373
smoothSolver:  Solving for epsilon, Initial residual = 0.00674573, Final residual = 0.000451015, No Iterations 10
smoothSolver:  Solving for k, Initial residual = 0.0130357, Final residual = 0.00103493, No Iterations 10
ExecutionTime = 10.03 s  ClockTime = 10 s

Time = 52

smoothSolver:  Solving for Ux, Initial residual = 0.0128617, Final residual = 0.000442422, No Iterations 4
smoothSolver:  Solving for Uy, Initial residual = 0.00241141, Final residual = 8.64775e-05, No Iterations 4
smoothSolver:  Solving for Uz, Initial residual = 0.0127717, Final residual = 0.000252094, No Iterations 4
GAMG:  Solving for p, Initial residual = 0.0455022, Final residual = 0.00186615, No Iterations 4
time step continuity errors : sum local = 4.63861e-06, global = 9.91413e-07, cumulative = -0.000610381
smoothSolver:  Solving for epsilon, Initial residual = 0.00660031, Final residual = 0.000442724, No Iterations 10
smoothSolver:  Solving for k, Initial residual = 0.0127332, Final residual = 0.00100998, No Iterations 10
ExecutionTime = 10.24 s  ClockTime = 11 s

Time = 53

smoothSolver:  Solving for Ux, Initial residual = 0.0126355, Final residual = 0.00043789, No Iterations 4
smoothSolver:  Solving for Uy, Initial residual = 0.0023824, Final residual = 8.54278e-05, No Iterations 4
smoothSolver:  Solving for Uz, Initial residual = 0.0124681, Final residual = 0.000246522, No Iterations 4
GAMG:  Solving for p, Initial residual = 0.0417994, Final residual = 0.00160199, No Iterations 4
time step continuity errors : sum local = 4.02723e-06, global = 8.77788e-07, cumulative = -0.000609503
smoothSolver:  Solving for epsilon, Initial residual = 0.00645496, Final residual = 0.000432487, No Iterations 10
smoothSolver:  Solving for k, Initial residual = 0.0124542, Final residual = 0.000982007, No Iterations 10
ExecutionTime = 11.25 s  ClockTime = 12 s

Time = 54

smoothSolver:  Solving for Ux, Initial residual = 0.0123297, Final residual = 0.000431243, No Iterations 4
smoothSolver:  Solving for Uy, Initial residual = 0.00234632, Final residual = 8.46633e-05, No Iterations 4
smoothSolver:  Solving for Uz, Initial residual = 0.0121934, Final residual = 0.000243597, No Iterations 4
GAMG:  Solving for p, Initial residual = 0.0374802, Final residual = 0.00178968, No Iterations 3
time step continuity errors : sum local = 4.54719e-06, global = -7.56479e-07, cumulative = -0.00061026
smoothSolver:  Solving for epsilon, Initial residual = 0.00629098, Final residual = 0.000422559, No Iterations 10
smoothSolver:  Solving for k, Initial residual = 0.0121364, Final residual = 0.000955856, No Iterations 10
ExecutionTime = 11.44 s  ClockTime = 12 s

Time = 55

smoothSolver:  Solving for Ux, Initial residual = 0.0118815, Final residual = 0.000421923, No Iterations 4
smoothSolver:  Solving for Uy, Initial residual = 0.00231276, Final residual = 8.33528e-05, No Iterations 4
smoothSolver:  Solving for Uz, Initial residual = 0.0120983, Final residual = 0.0002421, No Iterations 4
GAMG:  Solving for p, Initial residual = 0.0361626, Final residual = 0.00148052, No Iterations 3
time step continuity errors : sum local = 3.71069e-06, global = -2.44034e-07, cumulative = -0.000610504
smoothSolver:  Solving for epsilon, Initial residual = 0.00614289, Final residual = 0.000411362, No Iterations 10
smoothSolver:  Solving for k, Initial residual = 0.0118787, Final residual = 0.000928493, No Iterations 10
ExecutionTime = 11.64 s  ClockTime = 12 s

Time = 56

smoothSolver:  Solving for Ux, Initial residual = 0.0115265, Final residual = 0.000413668, No Iterations 4
smoothSolver:  Solving for Uy, Initial residual = 0.00228272, Final residual = 8.20878e-05, No Iterations 4
smoothSolver:  Solving for Uz, Initial residual = 0.0121075, Final residual = 0.00024013, No Iterations 4
GAMG:  Solving for p, Initial residual = 0.0351537, Final residual = 0.00127228, No Iterations 3
time step continuity errors : sum local = 3.12602e-06, global = 1.34165e-06, cumulative = -0.000609162
smoothSolver:  Solving for epsilon, Initial residual = 0.00598244, Final residual = 0.000401237, No Iterations 10
smoothSolver:  Solving for k, Initial residual = 0.0115957, Final residual = 0.000904933, No Iterations 10
ExecutionTime = 11.83 s  ClockTime = 12 s

Time = 57

smoothSolver:  Solving for Ux, Initial residual = 0.0112977, Final residual = 0.000406274, No Iterations 4
smoothSolver:  Solving for Uy, Initial residual = 0.00226427, Final residual = 8.05431e-05, No Iterations 4
smoothSolver:  Solving for Uz, Initial residual = 0.0120949, Final residual = 0.000232058, No Iterations 4
GAMG:  Solving for p, Initial residual = 0.035416, Final residual = 0.00141824, No Iterations 3
time step continuity errors : sum local = 3.35886e-06, global = 1.15501e-06, cumulative = -0.000608007
smoothSolver:  Solving for epsilon, Initial residual = 0.00583932, Final residual = 0.000389974, No Iterations 10
smoothSolver:  Solving for k, Initial residual = 0.011371, Final residual = 0.000880476, No Iterations 10
ExecutionTime = 12.02 s  ClockTime = 12 s

Time = 58

smoothSolver:  Solving for Ux, Initial residual = 0.0112025, Final residual = 0.000400493, No Iterations 4
smoothSolver:  Solving for Uy, Initial residual = 0.00224291, Final residual = 7.92531e-05, No Iterations 4
smoothSolver:  Solving for Uz, Initial residual = 0.0119995, Final residual = 0.000225268, No Iterations 4
GAMG:  Solving for p, Initial residual = 0.033843, Final residual = 0.00133875, No Iterations 3
time step continuity errors : sum local = 3.09312e-06, global = 1.18829e-06, cumulative = -0.000606819
smoothSolver:  Solving for epsilon, Initial residual = 0.00567989, Final residual = 0.000380045, No Iterations 10
smoothSolver:  Solving for k, Initial residual = 0.0111153, Final residual = 0.000859998, No Iterations 10
ExecutionTime = 12.21 s  ClockTime = 13 s

Time = 59

smoothSolver:  Solving for Ux, Initial residual = 0.0111927, Final residual = 0.000395369, No Iterations 4
smoothSolver:  Solving for Uy, Initial residual = 0.00223223, Final residual = 7.7895e-05, No Iterations 4
smoothSolver:  Solving for Uz, Initial residual = 0.0119875, Final residual = 0.000220011, No Iterations 4
GAMG:  Solving for p, Initial residual = 0.0334524, Final residual = 0.00127442, No Iterations 3
time step continuity errors : sum local = 2.84844e-06, global = 9.72298e-07, cumulative = -0.000605847
smoothSolver:  Solving for epsilon, Initial residual = 0.00554229, Final residual = 0.000368831, No Iterations 10
smoothSolver:  Solving for k, Initial residual = 0.0109275, Final residual = 0.00083847, No Iterations 10
ExecutionTime = 12.4 s  ClockTime = 13 s

Time = 60

smoothSolver:  Solving for Ux, Initial residual = 0.0111708, Final residual = 0.000390315, No Iterations 4
smoothSolver:  Solving for Uy, Initial residual = 0.00221277, Final residual = 7.68509e-05, No Iterations 4
smoothSolver:  Solving for Uz, Initial residual = 0.0118498, Final residual = 0.000214852, No Iterations 4
GAMG:  Solving for p, Initial residual = 0.0310744, Final residual = 0.00150385, No Iterations 3
time step continuity errors : sum local = 3.32206e-06, global = -7.5594e-07, cumulative = -0.000606603
smoothSolver:  Solving for epsilon, Initial residual = 0.00538363, Final residual = 0.000359025, No Iterations 10
smoothSolver:  Solving for k, Initial residual = 0.0106867, Final residual = 0.000820277, No Iterations 10
ExecutionTime = 12.58 s  ClockTime = 13 s

Time = 61

smoothSolver:  Solving for Ux, Initial residual = 0.0110866, Final residual = 0.000385106, No Iterations 4
smoothSolver:  Solving for Uy, Initial residual = 0.00219591, Final residual = 7.57658e-05, No Iterations 4
smoothSolver:  Solving for Uz, Initial residual = 0.0118712, Final residual = 0.00021523, No Iterations 4
GAMG:  Solving for p, Initial residual = 0.0299955, Final residual = 0.00135453, No Iterations 3
time step continuity errors : sum local = 2.94899e-06, global = -8.76265e-07, cumulative = -0.000607479
smoothSolver:  Solving for epsilon, Initial residual = 0.0052495, Final residual = 0.000347777, No Iterations 10
smoothSolver:  Solving for k, Initial residual = 0.0105216, Final residual = 0.00080058, No Iterations 10
ExecutionTime = 12.77 s  ClockTime = 13 s

Time = 62

smoothSolver:  Solving for Ux, Initial residual = 0.0109405, Final residual = 0.000379566, No Iterations 4
smoothSolver:  Solving for Uy, Initial residual = 0.00216962, Final residual = 7.49641e-05, No Iterations 4
smoothSolver:  Solving for Uz, Initial residual = 0.0117374, Final residual = 0.000213023, No Iterations 4
GAMG:  Solving for p, Initial residual = 0.0274721, Final residual = 0.000877983, No Iterations 4
time step continuity errors : sum local = 1.91192e-06, global = 4.93089e-07, cumulative = -0.000606986
smoothSolver:  Solving for epsilon, Initial residual = 0.00509193, Final residual = 0.000338162, No Iterations 10
smoothSolver:  Solving for k, Initial residual = 0.0102969, Final residual = 0.000784373, No Iterations 10
ExecutionTime = 12.97 s  ClockTime = 13 s

Time = 63

smoothSolver:  Solving for Ux, Initial residual = 0.0107605, Final residual = 0.000374034, No Iterations 4
smoothSolver:  Solving for Uy, Initial residual = 0.00214728, Final residual = 7.40903e-05, No Iterations 4
smoothSolver:  Solving for Uz, Initial residual = 0.0117581, Final residual = 0.000212223, No Iterations 4
GAMG:  Solving for p, Initial residual = 0.0269054, Final residual = 0.0013219, No Iterations 3
time step continuity errors : sum local = 2.86262e-06, global = -8.0839e-07, cumulative = -0.000607794
smoothSolver:  Solving for epsilon, Initial residual = 0.00496277, Final residual = 0.000327088, No Iterations 10
smoothSolver:  Solving for k, Initial residual = 0.0101425, Final residual = 0.000766362, No Iterations 10
ExecutionTime = 13.15 s  ClockTime = 13 s

Time = 64

smoothSolver:  Solving for Ux, Initial residual = 0.0105526, Final residual = 0.000368205, No Iterations 4
smoothSolver:  Solving for Uy, Initial residual = 0.00211779, Final residual = 7.33498e-05, No Iterations 4
smoothSolver:  Solving for Uz, Initial residual = 0.0115844, Final residual = 0.000208766, No Iterations 4
GAMG:  Solving for p, Initial residual = 0.0247762, Final residual = 0.000717665, No Iterations 4
time step continuity errors : sum local = 1.55368e-06, global = 5.76049e-07, cumulative = -0.000607218
smoothSolver:  Solving for epsilon, Initial residual = 0.0048098, Final residual = 0.000317963, No Iterations 10
smoothSolver:  Solving for k, Initial residual = 0.00993355, Final residual = 0.000752242, No Iterations 10
ExecutionTime = 13.36 s  ClockTime = 14 s

Time = 65

smoothSolver:  Solving for Ux, Initial residual = 0.0103479, Final residual = 0.00036247, No Iterations 4
smoothSolver:  Solving for Uy, Initial residual = 0.00209288, Final residual = 7.22962e-05, No Iterations 4
smoothSolver:  Solving for Uz, Initial residual = 0.0116301, Final residual = 0.000207466, No Iterations 4
GAMG:  Solving for p, Initial residual = 0.0248937, Final residual = 0.00122109, No Iterations 3
time step continuity errors : sum local = 2.61145e-06, global = -5.66557e-07, cumulative = -0.000607785
smoothSolver:  Solving for epsilon, Initial residual = 0.0046918, Final residual = 0.000307494, No Iterations 10
smoothSolver:  Solving for k, Initial residual = 0.00980803, Final residual = 0.000736709, No Iterations 10
ExecutionTime = 13.55 s  ClockTime = 14 s

Time = 66

smoothSolver:  Solving for Ux, Initial residual = 0.0101797, Final residual = 0.000356788, No Iterations 4
smoothSolver:  Solving for Uy, Initial residual = 0.00206568, Final residual = 7.14625e-05, No Iterations 4
smoothSolver:  Solving for Uz, Initial residual = 0.0114819, Final residual = 0.000205899, No Iterations 4
GAMG:  Solving for p, Initial residual = 0.0229086, Final residual = 0.000684865, No Iterations 4
time step continuity errors : sum local = 1.45478e-06, global = 5.79988e-07, cumulative = -0.000607205
smoothSolver:  Solving for epsilon, Initial residual = 0.00454987, Final residual = 0.000299286, No Iterations 10
smoothSolver:  Solving for k, Initial residual = 0.00962477, Final residual = 0.000725465, No Iterations 10
ExecutionTime = 13.74 s  ClockTime = 14 s

Time = 67

smoothSolver:  Solving for Ux, Initial residual = 0.0100683, Final residual = 0.000351041, No Iterations 4
smoothSolver:  Solving for Uy, Initial residual = 0.00204809, Final residual = 7.03635e-05, No Iterations 4
smoothSolver:  Solving for Uz, Initial residual = 0.0116058, Final residual = 0.000204033, No Iterations 4
GAMG:  Solving for p, Initial residual = 0.0231795, Final residual = 0.000474595, No Iterations 4
time step continuity errors : sum local = 9.85671e-07, global = 3.81383e-07, cumulative = -0.000606823
smoothSolver:  Solving for epsilon, Initial residual = 0.00444906, Final residual = 0.000289817, No Iterations 10
smoothSolver:  Solving for k, Initial residual = 0.00953978, Final residual = 0.000713167, No Iterations 10
ExecutionTime = 13.93 s  ClockTime = 14 s

Time = 68

smoothSolver:  Solving for Ux, Initial residual = 0.009978, Final residual = 0.000345112, No Iterations 4
smoothSolver:  Solving for Uy, Initial residual = 0.00202561, Final residual = 6.94649e-05, No Iterations 4
smoothSolver:  Solving for Uz, Initial residual = 0.0114165, Final residual = 0.000200537, No Iterations 4
GAMG:  Solving for p, Initial residual = 0.021163, Final residual = 0.000617094, No Iterations 4
time step continuity errors : sum local = 1.268e-06, global = 5.3021e-07, cumulative = -0.000606293
smoothSolver:  Solving for epsilon, Initial residual = 0.00431778, Final residual = 0.000282683, No Iterations 10
smoothSolver:  Solving for k, Initial residual = 0.00938062, Final residual = 0.000705045, No Iterations 10
ExecutionTime = 14.12 s  ClockTime = 14 s

Time = 69

smoothSolver:  Solving for Ux, Initial residual = 0.00989991, Final residual = 0.000339183, No Iterations 4
smoothSolver:  Solving for Uy, Initial residual = 0.00201088, Final residual = 6.84289e-05, No Iterations 4
smoothSolver:  Solving for Uz, Initial residual = 0.0115384, Final residual = 0.00019774, No Iterations 4
GAMG:  Solving for p, Initial residual = 0.0219578, Final residual = 0.000993217, No Iterations 3
time step continuity errors : sum local = 1.99357e-06, global = -4.28919e-07, cumulative = -0.000606722
smoothSolver:  Solving for epsilon, Initial residual = 0.00423182, Final residual = 0.000274211, No Iterations 10
smoothSolver:  Solving for k, Initial residual = 0.00932867, Final residual = 0.000695508, No Iterations 10
ExecutionTime = 14.29 s  ClockTime = 15 s

Time = 70

smoothSolver:  Solving for Ux, Initial residual = 0.00980514, Final residual = 0.000333869, No Iterations 4
smoothSolver:  Solving for Uy, Initial residual = 0.00198782, Final residual = 6.76352e-05, No Iterations 4
smoothSolver:  Solving for Uz, Initial residual = 0.0113141, Final residual = 0.000195691, No Iterations 4
GAMG:  Solving for p, Initial residual = 0.0199446, Final residual = 0.000541379, No Iterations 4
time step continuity errors : sum local = 1.08104e-06, global = 4.53104e-07, cumulative = -0.000606269
smoothSolver:  Solving for epsilon, Initial residual = 0.00411179, Final residual = 0.000268113, No Iterations 10
smoothSolver:  Solving for k, Initial residual = 0.0091933, Final residual = 0.000689966, No Iterations 10
ExecutionTime = 14.47 s  ClockTime = 15 s

Time = 71

smoothSolver:  Solving for Ux, Initial residual = 0.00972653, Final residual = 0.000328674, No Iterations 4
smoothSolver:  Solving for Uy, Initial residual = 0.0019714, Final residual = 6.66729e-05, No Iterations 4
smoothSolver:  Solving for Uz, Initial residual = 0.0114744, Final residual = 0.000193904, No Iterations 4
GAMG:  Solving for p, Initial residual = 0.0211869, Final residual = 0.000962496, No Iterations 3
time step continuity errors : sum local = 1.88873e-06, global = -5.01642e-07, cumulative = -0.000606771
smoothSolver:  Solving for epsilon, Initial residual = 0.00403887, Final residual = 0.00026052, No Iterations 10
smoothSolver:  Solving for k, Initial residual = 0.00916552, Final residual = 0.000682442, No Iterations 10
ExecutionTime = 14.65 s  ClockTime = 15 s

Time = 72

smoothSolver:  Solving for Ux, Initial residual = 0.00960376, Final residual = 0.000324265, No Iterations 4
smoothSolver:  Solving for Uy, Initial residual = 0.00194694, Final residual = 6.59729e-05, No Iterations 4
smoothSolver:  Solving for Uz, Initial residual = 0.0112337, Final residual = 0.000192902, No Iterations 4
GAMG:  Solving for p, Initial residual = 0.0191383, Final residual = 0.000561936, No Iterations 4
time step continuity errors : sum local = 1.1062e-06, global = 4.39718e-07, cumulative = -0.000606331
smoothSolver:  Solving for epsilon, Initial residual = 0.00392631, Final residual = 0.000255333, No Iterations 10
smoothSolver:  Solving for k, Initial residual = 0.00904291, Final residual = 0.000678833, No Iterations 10
ExecutionTime = 14.85 s  ClockTime = 15 s

Time = 73

smoothSolver:  Solving for Ux, Initial residual = 0.00951891, Final residual = 0.000319323, No Iterations 4
smoothSolver:  Solving for Uy, Initial residual = 0.00192838, Final residual = 6.50176e-05, No Iterations 4
smoothSolver:  Solving for Uz, Initial residual = 0.01144, Final residual = 0.000191981, No Iterations 4
GAMG:  Solving for p, Initial residual = 0.0205992, Final residual = 0.000989566, No Iterations 3
time step continuity errors : sum local = 1.91667e-06, global = -5.03695e-07, cumulative = -0.000606835
smoothSolver:  Solving for epsilon, Initial residual = 0.00386548, Final residual = 0.000248565, No Iterations 10
smoothSolver:  Solving for k, Initial residual = 0.0090358, Final residual = 0.000672994, No Iterations 10
ExecutionTime = 15.03 s  ClockTime = 15 s

Time = 74

smoothSolver:  Solving for Ux, Initial residual = 0.0093695, Final residual = 0.000314865, No Iterations 4
smoothSolver:  Solving for Uy, Initial residual = 0.00190559, Final residual = 6.43612e-05, No Iterations 4
smoothSolver:  Solving for Uz, Initial residual = 0.0111742, Final residual = 0.000191411, No Iterations 4
GAMG:  Solving for p, Initial residual = 0.0184932, Final residual = 0.000563202, No Iterations 4
time step continuity errors : sum local = 1.0945e-06, global = 4.57427e-07, cumulative = -0.000606377
smoothSolver:  Solving for epsilon, Initial residual = 0.00376235, Final residual = 0.000244301, No Iterations 10
smoothSolver:  Solving for k, Initial residual = 0.00892681, Final residual = 0.000671104, No Iterations 10
ExecutionTime = 15.22 s  ClockTime = 16 s

Time = 75

smoothSolver:  Solving for Ux, Initial residual = 0.00929927, Final residual = 0.000309594, No Iterations 4
smoothSolver:  Solving for Uy, Initial residual = 0.00188706, Final residual = 6.33946e-05, No Iterations 4
smoothSolver:  Solving for Uz, Initial residual = 0.0114133, Final residual = 0.000190002, No Iterations 4
GAMG:  Solving for p, Initial residual = 0.0199719, Final residual = 0.000513094, No Iterations 4
time step continuity errors : sum local = 9.79466e-07, global = 3.30798e-07, cumulative = -0.000606046
smoothSolver:  Solving for epsilon, Initial residual = 0.00371488, Final residual = 0.000238373, No Iterations 10
smoothSolver:  Solving for k, Initial residual = 0.00894458, Final residual = 0.00066685, No Iterations 10
ExecutionTime = 15.42 s  ClockTime = 16 s

Time = 76

smoothSolver:  Solving for Ux, Initial residual = 0.0091619, Final residual = 0.000305288, No Iterations 4
smoothSolver:  Solving for Uy, Initial residual = 0.00186757, Final residual = 6.27942e-05, No Iterations 4
smoothSolver:  Solving for Uz, Initial residual = 0.011144, Final residual = 0.000189469, No Iterations 4
GAMG:  Solving for p, Initial residual = 0.0179137, Final residual = 0.000574947, No Iterations 4
time step continuity errors : sum local = 1.09868e-06, global = 4.61894e-07, cumulative = -0.000605585
smoothSolver:  Solving for epsilon, Initial residual = 0.00362012, Final residual = 0.000234977, No Iterations 10
smoothSolver:  Solving for k, Initial residual = 0.00884514, Final residual = 0.000666487, No Iterations 10
ExecutionTime = 15.62 s  ClockTime = 16 s

Time = 77

smoothSolver:  Solving for Ux, Initial residual = 0.00911508, Final residual = 0.000299799, No Iterations 4
smoothSolver:  Solving for Uy, Initial residual = 0.00184974, Final residual = 6.1743e-05, No Iterations 4
smoothSolver:  Solving for Uz, Initial residual = 0.0114057, Final residual = 0.000187327, No Iterations 4
GAMG:  Solving for p, Initial residual = 0.0194393, Final residual = 0.000499416, No Iterations 4
time step continuity errors : sum local = 9.34933e-07, global = 3.61306e-07, cumulative = -0.000605223
smoothSolver:  Solving for epsilon, Initial residual = 0.00358558, Final residual = 0.000229867, No Iterations 10
smoothSolver:  Solving for k, Initial residual = 0.00888647, Final residual = 0.000663653, No Iterations 10
ExecutionTime = 15.81 s  ClockTime = 16 s

Time = 78

smoothSolver:  Solving for Ux, Initial residual = 0.00898737, Final residual = 0.000295703, No Iterations 4
smoothSolver:  Solving for Uy, Initial residual = 0.00183297, Final residual = 6.11569e-05, No Iterations 4
smoothSolver:  Solving for Uz, Initial residual = 0.0111298, Final residual = 0.000187127, No Iterations 4
GAMG:  Solving for p, Initial residual = 0.0176466, Final residual = 0.000561702, No Iterations 4
time step continuity errors : sum local = 1.04981e-06, global = 4.43909e-07, cumulative = -0.000604779
smoothSolver:  Solving for epsilon, Initial residual = 0.00349952, Final residual = 0.000227293, No Iterations 10
smoothSolver:  Solving for k, Initial residual = 0.00879751, Final residual = 0.000664661, No Iterations 10
ExecutionTime = 15.99 s  ClockTime = 16 s

Time = 79

smoothSolver:  Solving for Ux, Initial residual = 0.00896017, Final residual = 0.000290217, No Iterations 4
smoothSolver:  Solving for Uy, Initial residual = 0.00181562, Final residual = 6.0124e-05, No Iterations 4
smoothSolver:  Solving for Uz, Initial residual = 0.0114232, Final residual = 0.000185465, No Iterations 4
GAMG:  Solving for p, Initial residual = 0.0190681, Final residual = 0.000519263, No Iterations 4
time step continuity errors : sum local = 9.51589e-07, global = 3.62514e-07, cumulative = -0.000604417
smoothSolver:  Solving for epsilon, Initial residual = 0.00347604, Final residual = 0.000222857, No Iterations 10
smoothSolver:  Solving for k, Initial residual = 0.00885788, Final residual = 0.000662989, No Iterations 10
ExecutionTime = 16.2 s  ClockTime = 17 s

Time = 80

smoothSolver:  Solving for Ux, Initial residual = 0.0088304, Final residual = 0.000286647, No Iterations 4
smoothSolver:  Solving for Uy, Initial residual = 0.00180047, Final residual = 5.95816e-05, No Iterations 4
smoothSolver:  Solving for Uz, Initial residual = 0.0111175, Final residual = 0.000185973, No Iterations 4
GAMG:  Solving for p, Initial residual = 0.0173132, Final residual = 0.000530066, No Iterations 4
time step continuity errors : sum local = 9.69628e-07, global = 4.12021e-07, cumulative = -0.000604005
smoothSolver:  Solving for epsilon, Initial residual = 0.00339647, Final residual = 0.000220945, No Iterations 10
smoothSolver:  Solving for k, Initial residual = 0.00877498, Final residual = 0.000664982, No Iterations 10
ExecutionTime = 16.39 s  ClockTime = 17 s

Time = 81

smoothSolver:  Solving for Ux, Initial residual = 0.0088023, Final residual = 0.000281327, No Iterations 4
smoothSolver:  Solving for Uy, Initial residual = 0.00178138, Final residual = 5.85799e-05, No Iterations 4
smoothSolver:  Solving for Uz, Initial residual = 0.0113954, Final residual = 0.000184232, No Iterations 4
GAMG:  Solving for p, Initial residual = 0.0186878, Final residual = 0.000546172, No Iterations 4
time step continuity errors : sum local = 9.82193e-07, global = 3.57317e-07, cumulative = -0.000603647
smoothSolver:  Solving for epsilon, Initial residual = 0.00338155, Final residual = 0.000217038, No Iterations 10
smoothSolver:  Solving for k, Initial residual = 0.00884958, Final residual = 0.000664016, No Iterations 10
ExecutionTime = 16.6 s  ClockTime = 17 s

Time = 82

smoothSolver:  Solving for Ux, Initial residual = 0.00866211, Final residual = 0.00027808, No Iterations 4
smoothSolver:  Solving for Uy, Initial residual = 0.00176718, Final residual = 5.80648e-05, No Iterations 4
smoothSolver:  Solving for Uz, Initial residual = 0.0110511, Final residual = 0.000185217, No Iterations 4
GAMG:  Solving for p, Initial residual = 0.0168856, Final residual = 0.000492146, No Iterations 4
time step continuity errors : sum local = 8.84678e-07, global = 3.66847e-07, cumulative = -0.000603281
smoothSolver:  Solving for epsilon, Initial residual = 0.00330581, Final residual = 0.000215596, No Iterations 10
smoothSolver:  Solving for k, Initial residual = 0.00876745, Final residual = 0.000666598, No Iterations 10
ExecutionTime = 16.78 s  ClockTime = 17 s

Time = 83

smoothSolver:  Solving for Ux, Initial residual = 0.00863832, Final residual = 0.000272779, No Iterations 4
smoothSolver:  Solving for Uy, Initial residual = 0.00174679, Final residual = 5.71255e-05, No Iterations 4
smoothSolver:  Solving for Uz, Initial residual = 0.0113192, Final residual = 0.000183088, No Iterations 4
GAMG:  Solving for p, Initial residual = 0.0182705, Final residual = 0.000555844, No Iterations 4
time step continuity errors : sum local = 9.85074e-07, global = 3.83875e-07, cumulative = -0.000602897
smoothSolver:  Solving for epsilon, Initial residual = 0.00329843, Final residual = 0.000212102, No Iterations 10
smoothSolver:  Solving for k, Initial residual = 0.00885385, Final residual = 0.000666106, No Iterations 10
ExecutionTime = 16.99 s  ClockTime = 17 s

Time = 84

smoothSolver:  Solving for Ux, Initial residual = 0.00850455, Final residual = 0.00026973, No Iterations 4
smoothSolver:  Solving for Uy, Initial residual = 0.00173523, Final residual = 5.66206e-05, No Iterations 4
smoothSolver:  Solving for Uz, Initial residual = 0.0110376, Final residual = 0.00018454, No Iterations 4
GAMG:  Solving for p, Initial residual = 0.0167457, Final residual = 0.000476612, No Iterations 4
time step continuity errors : sum local = 8.43256e-07, global = 3.53042e-07, cumulative = -0.000602544
smoothSolver:  Solving for epsilon, Initial residual = 0.00322644, Final residual = 0.000211053, No Iterations 10
smoothSolver:  Solving for k, Initial residual = 0.00877301, Final residual = 0.000669156, No Iterations 10
ExecutionTime = 17.18 s  ClockTime = 18 s

Time = 85

smoothSolver:  Solving for Ux, Initial residual = 0.00848016, Final residual = 0.00026429, No Iterations 4
smoothSolver:  Solving for Uy, Initial residual = 0.00171457, Final residual = 5.56759e-05, No Iterations 4
smoothSolver:  Solving for Uz, Initial residual = 0.0112556, Final residual = 0.000182048, No Iterations 4
GAMG:  Solving for p, Initial residual = 0.0178141, Final residual = 0.000571636, No Iterations 4
time step continuity errors : sum local = 9.95954e-07, global = 4.14876e-07, cumulative = -0.000602129
smoothSolver:  Solving for epsilon, Initial residual = 0.00322523, Final residual = 0.000207917, No Iterations 10
smoothSolver:  Solving for k, Initial residual = 0.00887071, Final residual = 0.000669031, No Iterations 10
ExecutionTime = 17.36 s  ClockTime = 18 s

Time = 86

smoothSolver:  Solving for Ux, Initial residual = 0.00836305, Final residual = 0.000261576, No Iterations 4
smoothSolver:  Solving for Uy, Initial residual = 0.00170588, Final residual = 5.52018e-05, No Iterations 4
smoothSolver:  Solving for Uz, Initial residual = 0.0110522, Final residual = 0.000184348, No Iterations 4
GAMG:  Solving for p, Initial residual = 0.0167261, Final residual = 0.000435135, No Iterations 4
time step continuity errors : sum local = 7.55789e-07, global = 3.18893e-07, cumulative = -0.00060181
smoothSolver:  Solving for epsilon, Initial residual = 0.00315605, Final residual = 0.000207177, No Iterations 10
smoothSolver:  Solving for k, Initial residual = 0.00878986, Final residual = 0.000672472, No Iterations 10
ExecutionTime = 17.55 s  ClockTime = 18 s

Time = 87

smoothSolver:  Solving for Ux, Initial residual = 0.00833173, Final residual = 0.000256045, No Iterations 4
smoothSolver:  Solving for Uy, Initial residual = 0.00168377, Final residual = 5.42074e-05, No Iterations 4
smoothSolver:  Solving for Uz, Initial residual = 0.0112241, Final residual = 0.000181313, No Iterations 4
GAMG:  Solving for p, Initial residual = 0.0175332, Final residual = 0.000563653, No Iterations 4
time step continuity errors : sum local = 9.63424e-07, global = 4.04006e-07, cumulative = -0.000601406
smoothSolver:  Solving for epsilon, Initial residual = 0.00315992, Final residual = 0.000204313, No Iterations 10
smoothSolver:  Solving for k, Initial residual = 0.00889653, Final residual = 0.000672553, No Iterations 10
ExecutionTime = 17.73 s  ClockTime = 18 s

Time = 88

smoothSolver:  Solving for Ux, Initial residual = 0.00822548, Final residual = 0.000253666, No Iterations 4
smoothSolver:  Solving for Uy, Initial residual = 0.00167705, Final residual = 5.38196e-05, No Iterations 4
smoothSolver:  Solving for Uz, Initial residual = 0.0110571, Final residual = 0.000183473, No Iterations 4
GAMG:  Solving for p, Initial residual = 0.0167591, Final residual = 0.000389035, No Iterations 4
time step continuity errors : sum local = 6.62854e-07, global = 2.63283e-07, cumulative = -0.000601143
smoothSolver:  Solving for epsilon, Initial residual = 0.00309265, Final residual = 0.000203779, No Iterations 10
smoothSolver:  Solving for k, Initial residual = 0.00881349, Final residual = 0.000676194, No Iterations 10
ExecutionTime = 17.92 s  ClockTime = 18 s

Time = 89

smoothSolver:  Solving for Ux, Initial residual = 0.00820455, Final residual = 0.00024805, No Iterations 4
smoothSolver:  Solving for Uy, Initial residual = 0.00165358, Final residual = 5.28648e-05, No Iterations 4
smoothSolver:  Solving for Uz, Initial residual = 0.0112163, Final residual = 0.000180242, No Iterations 4
GAMG:  Solving for p, Initial residual = 0.0170478, Final residual = 0.00053838, No Iterations 4
time step continuity errors : sum local = 9.04138e-07, global = 3.71231e-07, cumulative = -0.000600771
smoothSolver:  Solving for epsilon, Initial residual = 0.00310026, Final residual = 0.000201119, No Iterations 10
smoothSolver:  Solving for k, Initial residual = 0.00892723, Final residual = 0.00067627, No Iterations 10
ExecutionTime = 18.1 s  ClockTime = 18 s

Time = 90

smoothSolver:  Solving for Ux, Initial residual = 0.00806736, Final residual = 0.000245477, No Iterations 4
smoothSolver:  Solving for Uy, Initial residual = 0.00164596, Final residual = 5.24751e-05, No Iterations 4
smoothSolver:  Solving for Uz, Initial residual = 0.0109987, Final residual = 0.000182086, No Iterations 4
GAMG:  Solving for p, Initial residual = 0.0162718, Final residual = 0.000366791, No Iterations 4
time step continuity errors : sum local = 6.14826e-07, global = 2.3117e-07, cumulative = -0.00060054
smoothSolver:  Solving for epsilon, Initial residual = 0.00303392, Final residual = 0.000200691, No Iterations 10
smoothSolver:  Solving for k, Initial residual = 0.00883934, Final residual = 0.000679936, No Iterations 10
ExecutionTime = 18.3 s  ClockTime = 19 s

Time = 91

smoothSolver:  Solving for Ux, Initial residual = 0.00802017, Final residual = 0.000240095, No Iterations 4
smoothSolver:  Solving for Uy, Initial residual = 0.00162323, Final residual = 5.1599e-05, No Iterations 4
smoothSolver:  Solving for Uz, Initial residual = 0.0111464, Final residual = 0.000179767, No Iterations 4
GAMG:  Solving for p, Initial residual = 0.0166994, Final residual = 0.00055091, No Iterations 4
time step continuity errors : sum local = 9.11572e-07, global = 3.80862e-07, cumulative = -0.000600159
smoothSolver:  Solving for epsilon, Initial residual = 0.00304476, Final residual = 0.000198178, No Iterations 10
smoothSolver:  Solving for k, Initial residual = 0.00895863, Final residual = 0.000679855, No Iterations 10
ExecutionTime = 18.5 s  ClockTime = 19 s

Time = 92

smoothSolver:  Solving for Ux, Initial residual = 0.00788863, Final residual = 0.000237792, No Iterations 4
smoothSolver:  Solving for Uy, Initial residual = 0.00161466, Final residual = 5.11706e-05, No Iterations 4
smoothSolver:  Solving for Uz, Initial residual = 0.0109346, Final residual = 0.000180953, No Iterations 4
GAMG:  Solving for p, Initial residual = 0.015959, Final residual = 0.000365886, No Iterations 4
time step continuity errors : sum local = 6.03921e-07, global = 2.2482e-07, cumulative = -0.000599935
smoothSolver:  Solving for epsilon, Initial residual = 0.00297912, Final residual = 0.000197793, No Iterations 10
smoothSolver:  Solving for k, Initial residual = 0.00886552, Final residual = 0.000683482, No Iterations 10
ExecutionTime = 18.7 s  ClockTime = 19 s

Time = 93

smoothSolver:  Solving for Ux, Initial residual = 0.00785188, Final residual = 0.000232591, No Iterations 4
smoothSolver:  Solving for Uy, Initial residual = 0.00159357, Final residual = 5.03398e-05, No Iterations 4
smoothSolver:  Solving for Uz, Initial residual = 0.0110743, Final residual = 0.000179055, No Iterations 4
GAMG:  Solving for p, Initial residual = 0.016797, Final residual = 0.000568567, No Iterations 4
time step continuity errors : sum local = 9.26356e-07, global = 3.91349e-07, cumulative = -0.000599543
smoothSolver:  Solving for epsilon, Initial residual = 0.00299203, Final residual = 0.000195376, No Iterations 10
smoothSolver:  Solving for k, Initial residual = 0.00899028, Final residual = 0.000683177, No Iterations 10
ExecutionTime = 18.89 s  ClockTime = 19 s

Time = 94

smoothSolver:  Solving for Ux, Initial residual = 0.00770353, Final residual = 0.000229922, No Iterations 4
smoothSolver:  Solving for Uy, Initial residual = 0.00158534, Final residual = 4.9885e-05, No Iterations 4
smoothSolver:  Solving for Uz, Initial residual = 0.0108694, Final residual = 0.000180095, No Iterations 4
GAMG:  Solving for p, Initial residual = 0.015489, Final residual = 0.000354543, No Iterations 4
time step continuity errors : sum local = 5.75288e-07, global = 2.13075e-07, cumulative = -0.00059933
smoothSolver:  Solving for epsilon, Initial residual = 0.00292647, Final residual = 0.000194977, No Iterations 10
smoothSolver:  Solving for k, Initial residual = 0.00889169, Final residual = 0.000686733, No Iterations 10
ExecutionTime = 19.1 s  ClockTime = 19 s

Time = 95

smoothSolver:  Solving for Ux, Initial residual = 0.00768841, Final residual = 0.000225058, No Iterations 4
smoothSolver:  Solving for Uy, Initial residual = 0.00156554, Final residual = 4.91228e-05, No Iterations 4
smoothSolver:  Solving for Uz, Initial residual = 0.0110484, Final residual = 0.000178759, No Iterations 4
GAMG:  Solving for p, Initial residual = 0.0165398, Final residual = 0.000609542, No Iterations 4
time step continuity errors : sum local = 9.76446e-07, global = 4.07455e-07, cumulative = -0.000598923
smoothSolver:  Solving for epsilon, Initial residual = 0.0029414, Final residual = 0.000192653, No Iterations 10
smoothSolver:  Solving for k, Initial residual = 0.00902202, Final residual = 0.00068619, No Iterations 10
ExecutionTime = 19.28 s  ClockTime = 20 s

Time = 96

smoothSolver:  Solving for Ux, Initial residual = 0.00757967, Final residual = 0.000222381, No Iterations 4
smoothSolver:  Solving for Uy, Initial residual = 0.00156091, Final residual = 4.86737e-05, No Iterations 4
smoothSolver:  Solving for Uz, Initial residual = 0.0108817, Final residual = 0.000179918, No Iterations 4
GAMG:  Solving for p, Initial residual = 0.0154034, Final residual = 0.0003862, No Iterations 4
time step continuity errors : sum local = 6.15023e-07, global = 2.44088e-07, cumulative = -0.000598679
smoothSolver:  Solving for epsilon, Initial residual = 0.0028764, Final residual = 0.000192234, No Iterations 10
smoothSolver:  Solving for k, Initial residual = 0.00892028, Final residual = 0.000689763, No Iterations 10
ExecutionTime = 19.47 s  ClockTime = 20 s

Time = 97

smoothSolver:  Solving for Ux, Initial residual = 0.00752454, Final residual = 0.000217738, No Iterations 4
smoothSolver:  Solving for Uy, Initial residual = 0.00154209, Final residual = 4.79133e-05, No Iterations 4
smoothSolver:  Solving for Uz, Initial residual = 0.0109732, Final residual = 0.000178999, No Iterations 4
GAMG:  Solving for p, Initial residual = 0.0161227, Final residual = 0.000561818, No Iterations 4
time step continuity errors : sum local = 8.80153e-07, global = 3.64416e-07, cumulative = -0.000598314
smoothSolver:  Solving for epsilon, Initial residual = 0.00289307, Final residual = 0.000189971, No Iterations 10
smoothSolver:  Solving for k, Initial residual = 0.00905604, Final residual = 0.000688988, No Iterations 10
ExecutionTime = 19.66 s  ClockTime = 20 s

Time = 98

smoothSolver:  Solving for Ux, Initial residual = 0.00741908, Final residual = 0.000215015, No Iterations 4
smoothSolver:  Solving for Uy, Initial residual = 0.00153488, Final residual = 4.74305e-05, No Iterations 4
smoothSolver:  Solving for Uz, Initial residual = 0.0108382, Final residual = 0.000179831, No Iterations 4
GAMG:  Solving for p, Initial residual = 0.0150046, Final residual = 0.000686057, No Iterations 3
time step continuity errors : sum local = 1.07012e-06, global = -2.17372e-07, cumulative = -0.000598532
smoothSolver:  Solving for epsilon, Initial residual = 0.00282731, Final residual = 0.000189456, No Iterations 10
smoothSolver:  Solving for k, Initial residual = 0.0089452, Final residual = 0.000692289, No Iterations 10
ExecutionTime = 19.84 s  ClockTime = 20 s

Time = 99

smoothSolver:  Solving for Ux, Initial residual = 0.00737919, Final residual = 0.000210636, No Iterations 4
smoothSolver:  Solving for Uy, Initial residual = 0.00151258, Final residual = 4.67008e-05, No Iterations 4
smoothSolver:  Solving for Uz, Initial residual = 0.0109494, Final residual = 0.000179375, No Iterations 4
GAMG:  Solving for p, Initial residual = 0.0153064, Final residual = 0.000496902, No Iterations 4
time step continuity errors : sum local = 7.65436e-07, global = 3.11101e-07, cumulative = -0.00059822
smoothSolver:  Solving for epsilon, Initial residual = 0.00284375, Final residual = 0.000187157, No Iterations 10
smoothSolver:  Solving for k, Initial residual = 0.00908321, Final residual = 0.000690949, No Iterations 10
ExecutionTime = 20.04 s  ClockTime = 20 s

Time = 100

smoothSolver:  Solving for Ux, Initial residual = 0.00730133, Final residual = 0.000208046, No Iterations 4
smoothSolver:  Solving for Uy, Initial residual = 0.00150331, Final residual = 4.62682e-05, No Iterations 4
smoothSolver:  Solving for Uz, Initial residual = 0.0108338, Final residual = 0.000180096, No Iterations 4
GAMG:  Solving for p, Initial residual = 0.0145754, Final residual = 0.00069689, No Iterations 3
time step continuity errors : sum local = 1.07143e-06, global = -2.22702e-07, cumulative = -0.000598443
smoothSolver:  Solving for epsilon, Initial residual = 0.00277685, Final residual = 0.000186516, No Iterations 10
smoothSolver:  Solving for k, Initial residual = 0.00896246, Final residual = 0.000693866, No Iterations 10
[...]
smoothSolver:  Solving for Uz, Initial residual = 3.56387e-05, Final residual = 5.54562e-07, No Iterations 4
GAMG:  Solving for p, Initial residual = 0.00121171, Final residual = 5.4658e-05, No Iterations 6
time step continuity errors : sum local = 3.1155e-08, global = -9.89012e-09, cumulative = -0.00058664
smoothSolver:  Solving for epsilon, Initial residual = 8.31349e-05, Final residual = 6.91759e-06, No Iterations 4
smoothSolver:  Solving for k, Initial residual = 7.68099e-05, Final residual = 5.71803e-06, No Iterations 8
ExecutionTime = 163.04 s  ClockTime = 164 s

Time = 777

smoothSolver:  Solving for Ux, Initial residual = 5.21328e-05, Final residual = 7.83021e-07, No Iterations 4
smoothSolver:  Solving for Uy, Initial residual = 4.42309e-06, Final residual = 3.47281e-07, No Iterations 2
smoothSolver:  Solving for Uz, Initial residual = 3.931e-05, Final residual = 5.90505e-07, No Iterations 4
GAMG:  Solving for p, Initial residual = 0.00112174, Final residual = 5.4387e-05, No Iterations 6
time step continuity errors : sum local = 3.07329e-08, global = 9.86179e-09, cumulative = -0.00058663
smoothSolver:  Solving for epsilon, Initial residual = 0.000101288, Final residual = 5.46003e-06, No Iterations 4
smoothSolver:  Solving for k, Initial residual = 0.000161921, Final residual = 9.3358e-06, No Iterations 6
ExecutionTime = 163.22 s  ClockTime = 164 s

Time = 778

smoothSolver:  Solving for Ux, Initial residual = 4.85024e-05, Final residual = 7.72473e-07, No Iterations 4
smoothSolver:  Solving for Uy, Initial residual = 4.18177e-06, Final residual = 3.51596e-07, No Iterations 2
smoothSolver:  Solving for Uz, Initial residual = 3.61951e-05, Final residual = 5.7248e-07, No Iterations 4
GAMG:  Solving for p, Initial residual = 0.00121049, Final residual = 5.3181e-05, No Iterations 6
time step continuity errors : sum local = 3.03076e-08, global = -9.61114e-09, cumulative = -0.00058664
smoothSolver:  Solving for epsilon, Initial residual = 8.29775e-05, Final residual = 6.90706e-06, No Iterations 4
smoothSolver:  Solving for k, Initial residual = 7.68517e-05, Final residual = 5.7183e-06, No Iterations 8
ExecutionTime = 163.42 s  ClockTime = 164 s

Time = 779

smoothSolver:  Solving for Ux, Initial residual = 5.21596e-05, Final residual = 7.84392e-07, No Iterations 4
smoothSolver:  Solving for Uy, Initial residual = 4.5396e-06, Final residual = 3.54438e-07, No Iterations 2
smoothSolver:  Solving for Uz, Initial residual = 3.90228e-05, Final residual = 5.78471e-07, No Iterations 4
GAMG:  Solving for p, Initial residual = 0.00111762, Final residual = 2.14573e-05, No Iterations 8
time step continuity errors : sum local = 1.21235e-08, global = 3.61349e-09, cumulative = -0.000586636
smoothSolver:  Solving for epsilon, Initial residual = 0.00010117, Final residual = 5.45818e-06, No Iterations 4
smoothSolver:  Solving for k, Initial residual = 0.000161949, Final residual = 9.32856e-06, No Iterations 6
ExecutionTime = 163.62 s  ClockTime = 164 s

Time = 780

smoothSolver:  Solving for Ux, Initial residual = 4.84502e-05, Final residual = 7.70962e-07, No Iterations 4
smoothSolver:  Solving for Uy, Initial residual = 4.36396e-06, Final residual = 3.62802e-07, No Iterations 2
smoothSolver:  Solving for Uz, Initial residual = 3.56421e-05, Final residual = 5.54926e-07, No Iterations 4
GAMG:  Solving for p, Initial residual = 0.00121079, Final residual = 5.46642e-05, No Iterations 6
time step continuity errors : sum local = 3.11587e-08, global = -9.89186e-09, cumulative = -0.000586646
smoothSolver:  Solving for epsilon, Initial residual = 8.3135e-05, Final residual = 6.9176e-06, No Iterations 4
smoothSolver:  Solving for k, Initial residual = 7.68076e-05, Final residual = 5.71779e-06, No Iterations 8
ExecutionTime = 163.83 s  ClockTime = 165 s

Time = 781

smoothSolver:  Solving for Ux, Initial residual = 5.21255e-05, Final residual = 7.83979e-07, No Iterations 4
smoothSolver:  Solving for Uy, Initial residual = 4.42234e-06, Final residual = 3.47189e-07, No Iterations 2
smoothSolver:  Solving for Uz, Initial residual = 3.93015e-05, Final residual = 5.89944e-07, No Iterations 4
GAMG:  Solving for p, Initial residual = 0.0011212, Final residual = 5.43877e-05, No Iterations 6
time step continuity errors : sum local = 3.07334e-08, global = 9.86214e-09, cumulative = -0.000586636
smoothSolver:  Solving for epsilon, Initial residual = 0.000101288, Final residual = 5.45982e-06, No Iterations 4
smoothSolver:  Solving for k, Initial residual = 0.00016192, Final residual = 9.33539e-06, No Iterations 6
ExecutionTime = 164.02 s  ClockTime = 165 s

Time = 782

smoothSolver:  Solving for Ux, Initial residual = 4.84394e-05, Final residual = 7.70779e-07, No Iterations 4
smoothSolver:  Solving for Uy, Initial residual = 4.182e-06, Final residual = 3.51637e-07, No Iterations 2
smoothSolver:  Solving for Uz, Initial residual = 3.61924e-05, Final residual = 5.72869e-07, No Iterations 4
GAMG:  Solving for p, Initial residual = 0.00120886, Final residual = 5.3196e-05, No Iterations 6
time step continuity errors : sum local = 3.03163e-08, global = -9.61409e-09, cumulative = -0.000586646
smoothSolver:  Solving for epsilon, Initial residual = 8.29755e-05, Final residual = 6.90669e-06, No Iterations 4
smoothSolver:  Solving for k, Initial residual = 7.68494e-05, Final residual = 5.71813e-06, No Iterations 8
ExecutionTime = 164.22 s  ClockTime = 165 s

Time = 783

smoothSolver:  Solving for Ux, Initial residual = 5.21303e-05, Final residual = 7.84777e-07, No Iterations 4
smoothSolver:  Solving for Uy, Initial residual = 4.53862e-06, Final residual = 3.54308e-07, No Iterations 2
smoothSolver:  Solving for Uz, Initial residual = 3.9018e-05, Final residual = 5.78264e-07, No Iterations 4
GAMG:  Solving for p, Initial residual = 0.00111515, Final residual = 2.14698e-05, No Iterations 8
time step continuity errors : sum local = 1.21306e-08, global = 3.61603e-09, cumulative = -0.000586642
smoothSolver:  Solving for epsilon, Initial residual = 0.000101169, Final residual = 5.45824e-06, No Iterations 4
smoothSolver:  Solving for k, Initial residual = 0.000161947, Final residual = 9.32804e-06, No Iterations 6
ExecutionTime = 164.42 s  ClockTime = 165 s

Time = 784

smoothSolver:  Solving for Ux, Initial residual = 4.84409e-05, Final residual = 7.70499e-07, No Iterations 4
smoothSolver:  Solving for Uy, Initial residual = 4.36438e-06, Final residual = 3.62917e-07, No Iterations 2
smoothSolver:  Solving for Uz, Initial residual = 3.56324e-05, Final residual = 5.54508e-07, No Iterations 4
GAMG:  Solving for p, Initial residual = 0.0012112, Final residual = 5.46568e-05, No Iterations 6
time step continuity errors : sum local = 3.11545e-08, global = -9.88983e-09, cumulative = -0.000586652
smoothSolver:  Solving for epsilon, Initial residual = 8.31334e-05, Final residual = 6.91721e-06, No Iterations 4
smoothSolver:  Solving for k, Initial residual = 7.68072e-05, Final residual = 5.71765e-06, No Iterations 8
ExecutionTime = 164.62 s  ClockTime = 165 s

Time = 785

smoothSolver:  Solving for Ux, Initial residual = 5.21028e-05, Final residual = 7.8252e-07, No Iterations 4
smoothSolver:  Solving for Uy, Initial residual = 4.42136e-06, Final residual = 3.46998e-07, No Iterations 2
smoothSolver:  Solving for Uz, Initial residual = 3.93117e-05, Final residual = 5.90343e-07, No Iterations 4
GAMG:  Solving for p, Initial residual = 0.00112265, Final residual = 5.43724e-05, No Iterations 6
time step continuity errors : sum local = 3.07248e-08, global = 9.85885e-09, cumulative = -0.000586642
smoothSolver:  Solving for epsilon, Initial residual = 0.000101287, Final residual = 5.45966e-06, No Iterations 4
smoothSolver:  Solving for k, Initial residual = 0.000161919, Final residual = 9.33495e-06, No Iterations 6
ExecutionTime = 164.82 s  ClockTime = 166 s

Time = 786

smoothSolver:  Solving for Ux, Initial residual = 4.84409e-05, Final residual = 7.71621e-07, No Iterations 4
smoothSolver:  Solving for Uy, Initial residual = 4.18304e-06, Final residual = 3.51825e-07, No Iterations 2
smoothSolver:  Solving for Uz, Initial residual = 3.61759e-05, Final residual = 5.72323e-07, No Iterations 4
GAMG:  Solving for p, Initial residual = 0.00121028, Final residual = 5.3199e-05, No Iterations 6
time step continuity errors : sum local = 3.0318e-08, global = -9.61498e-09, cumulative = -0.000586652
smoothSolver:  Solving for epsilon, Initial residual = 8.29764e-05, Final residual = 6.9067e-06, No Iterations 4
smoothSolver:  Solving for k, Initial residual = 7.68494e-05, Final residual = 5.71796e-06, No Iterations 8
ExecutionTime = 165.02 s  ClockTime = 166 s

Time = 787

smoothSolver:  Solving for Ux, Initial residual = 5.21348e-05, Final residual = 7.84143e-07, No Iterations 4
smoothSolver:  Solving for Uy, Initial residual = 4.5379e-06, Final residual = 3.54152e-07, No Iterations 2
smoothSolver:  Solving for Uz, Initial residual = 3.90381e-05, Final residual = 5.78756e-07, No Iterations 4
GAMG:  Solving for p, Initial residual = 0.00111603, Final residual = 2.14642e-05, No Iterations 8
time step continuity errors : sum local = 1.21275e-08, global = 3.61495e-09, cumulative = -0.000586648
smoothSolver:  Solving for epsilon, Initial residual = 0.000101169, Final residual = 5.45786e-06, No Iterations 4
smoothSolver:  Solving for k, Initial residual = 0.000161947, Final residual = 9.32777e-06, No Iterations 6
ExecutionTime = 165.23 s  ClockTime = 166 s

Time = 788

smoothSolver:  Solving for Ux, Initial residual = 4.84458e-05, Final residual = 7.70992e-07, No Iterations 4
smoothSolver:  Solving for Uy, Initial residual = 4.36523e-06, Final residual = 3.63048e-07, No Iterations 2
smoothSolver:  Solving for Uz, Initial residual = 3.56366e-05, Final residual = 5.54582e-07, No Iterations 4
GAMG:  Solving for p, Initial residual = 0.00121263, Final residual = 5.46385e-05, No Iterations 6
time step continuity errors : sum local = 3.11441e-08, global = -9.88617e-09, cumulative = -0.000586658
smoothSolver:  Solving for epsilon, Initial residual = 8.31345e-05, Final residual = 6.91738e-06, No Iterations 4
smoothSolver:  Solving for k, Initial residual = 7.68068e-05, Final residual = 5.71749e-06, No Iterations 8
ExecutionTime = 165.43 s  ClockTime = 166 s

Time = 789

smoothSolver:  Solving for Ux, Initial residual = 5.20938e-05, Final residual = 7.82865e-07, No Iterations 4
smoothSolver:  Solving for Uy, Initial residual = 4.42096e-06, Final residual = 3.4692e-07, No Iterations 2
smoothSolver:  Solving for Uz, Initial residual = 3.93072e-05, Final residual = 5.90023e-07, No Iterations 4
GAMG:  Solving for p, Initial residual = 0.00112169, Final residual = 5.43776e-05, No Iterations 6
time step continuity errors : sum local = 3.07278e-08, global = 9.85972e-09, cumulative = -0.000586648
smoothSolver:  Solving for epsilon, Initial residual = 0.000101287, Final residual = 5.45941e-06, No Iterations 4
smoothSolver:  Solving for k, Initial residual = 0.000161919, Final residual = 9.33477e-06, No Iterations 6
ExecutionTime = 165.64 s  ClockTime = 166 s

Time = 790

smoothSolver:  Solving for Ux, Initial residual = 4.84015e-05, Final residual = 7.70287e-07, No Iterations 4
smoothSolver:  Solving for Uy, Initial residual = 4.18312e-06, Final residual = 3.51828e-07, No Iterations 2
smoothSolver:  Solving for Uz, Initial residual = 3.61856e-05, Final residual = 5.72903e-07, No Iterations 4
GAMG:  Solving for p, Initial residual = 0.0012097, Final residual = 5.31979e-05, No Iterations 6
time step continuity errors : sum local = 3.03175e-08, global = -9.61472e-09, cumulative = -0.000586658
smoothSolver:  Solving for epsilon, Initial residual = 8.29754e-05, Final residual = 6.90652e-06, No Iterations 4
smoothSolver:  Solving for k, Initial residual = 7.68473e-05, Final residual = 5.71778e-06, No Iterations 8
ExecutionTime = 165.83 s  ClockTime = 167 s

Time = 791

smoothSolver:  Solving for Ux, Initial residual = 5.21086e-05, Final residual = 7.84945e-07, No Iterations 4
smoothSolver:  Solving for Uy, Initial residual = 4.53727e-06, Final residual = 3.54095e-07, No Iterations 2
smoothSolver:  Solving for Uz, Initial residual = 3.90242e-05, Final residual = 5.7825e-07, No Iterations 4
GAMG:  Solving for p, Initial residual = 0.00111439, Final residual = 2.14714e-05, No Iterations 8
time step continuity errors : sum local = 1.21316e-08, global = 3.61635e-09, cumulative = -0.000586654
smoothSolver:  Solving for epsilon, Initial residual = 0.000101169, Final residual = 5.45791e-06, No Iterations 4
smoothSolver:  Solving for k, Initial residual = 0.000161946, Final residual = 9.32735e-06, No Iterations 6
ExecutionTime = 166.05 s  ClockTime = 167 s

Time = 792

smoothSolver:  Solving for Ux, Initial residual = 4.83941e-05, Final residual = 7.69763e-07, No Iterations 4
smoothSolver:  Solving for Uy, Initial residual = 4.36558e-06, Final residual = 3.63112e-07, No Iterations 2
smoothSolver:  Solving for Uz, Initial residual = 3.56318e-05, Final residual = 5.54721e-07, No Iterations 4
GAMG:  Solving for p, Initial residual = 0.00121017, Final residual = 5.46679e-05, No Iterations 6
time step continuity errors : sum local = 3.11609e-08, global = -9.89221e-09, cumulative = -0.000586664
smoothSolver:  Solving for epsilon, Initial residual = 8.31325e-05, Final residual = 6.91698e-06, No Iterations 4
smoothSolver:  Solving for k, Initial residual = 7.68053e-05, Final residual = 5.71739e-06, No Iterations 8
ExecutionTime = 166.25 s  ClockTime = 167 s

Time = 793

smoothSolver:  Solving for Ux, Initial residual = 5.20859e-05, Final residual = 7.82179e-07, No Iterations 4
smoothSolver:  Solving for Uy, Initial residual = 4.41967e-06, Final residual = 3.46747e-07, No Iterations 2
smoothSolver:  Solving for Uz, Initial residual = 3.93145e-05, Final residual = 5.9021e-07, No Iterations 4
GAMG:  Solving for p, Initial residual = 0.00112214, Final residual = 5.43644e-05, No Iterations 6
time step continuity errors : sum local = 3.07204e-08, global = 9.85727e-09, cumulative = -0.000586654
smoothSolver:  Solving for epsilon, Initial residual = 0.000101287, Final residual = 5.45944e-06, No Iterations 4
smoothSolver:  Solving for k, Initial residual = 0.000161918, Final residual = 9.33449e-06, No Iterations 6
ExecutionTime = 166.45 s  ClockTime = 167 s

Time = 794

smoothSolver:  Solving for Ux, Initial residual = 4.84046e-05, Final residual = 7.70644e-07, No Iterations 4
smoothSolver:  Solving for Uy, Initial residual = 4.18401e-06, Final residual = 3.51998e-07, No Iterations 2
smoothSolver:  Solving for Uz, Initial residual = 3.61718e-05, Final residual = 5.72276e-07, No Iterations 4
GAMG:  Solving for p, Initial residual = 0.00121114, Final residual = 5.31916e-05, No Iterations 6
time step continuity errors : sum local = 3.03139e-08, global = -9.613e-09, cumulative = -0.000586664
smoothSolver:  Solving for epsilon, Initial residual = 8.29755e-05, Final residual = 6.90633e-06, No Iterations 4
smoothSolver:  Solving for k, Initial residual = 7.68476e-05, Final residual = 5.71764e-06, No Iterations 8
ExecutionTime = 166.65 s  ClockTime = 167 s

Time = 795

smoothSolver:  Solving for Ux, Initial residual = 5.2085e-05, Final residual = 7.83564e-07, No Iterations 4
smoothSolver:  Solving for Uy, Initial residual = 4.53663e-06, Final residual = 3.53932e-07, No Iterations 2
smoothSolver:  Solving for Uz, Initial residual = 3.90328e-05, Final residual = 5.78779e-07, No Iterations 4
GAMG:  Solving for p, Initial residual = 0.0011158, Final residual = 2.14689e-05, No Iterations 8
time step continuity errors : sum local = 1.21302e-08, global = 3.61585e-09, cumulative = -0.00058666
smoothSolver:  Solving for epsilon, Initial residual = 0.000101168, Final residual = 5.45764e-06, No Iterations 4
smoothSolver:  Solving for k, Initial residual = 0.000161945, Final residual = 9.32705e-06, No Iterations 6
ExecutionTime = 166.86 s  ClockTime = 168 s

Time = 796

smoothSolver:  Solving for Ux, Initial residual = 4.8424e-05, Final residual = 7.71094e-07, No Iterations 4
smoothSolver:  Solving for Uy, Initial residual = 4.36636e-06, Final residual = 3.63262e-07, No Iterations 2
smoothSolver:  Solving for Uz, Initial residual = 3.5637e-05, Final residual = 5.54621e-07, No Iterations 4
GAMG:  Solving for p, Initial residual = 0.00121101, Final residual = 5.46631e-05, No Iterations 6
time step continuity errors : sum local = 3.11582e-08, global = -9.89155e-09, cumulative = -0.00058667
smoothSolver:  Solving for epsilon, Initial residual = 8.3134e-05, Final residual = 6.91717e-06, No Iterations 4
smoothSolver:  Solving for k, Initial residual = 7.68056e-05, Final residual = 5.71728e-06, No Iterations 8
ExecutionTime = 167.05 s  ClockTime = 168 s

Time = 797

smoothSolver:  Solving for Ux, Initial residual = 5.20897e-05, Final residual = 7.8184e-07, No Iterations 4
smoothSolver:  Solving for Uy, Initial residual = 4.41945e-06, Final residual = 3.46674e-07, No Iterations 2
smoothSolver:  Solving for Uz, Initial residual = 3.93213e-05, Final residual = 5.90314e-07, No Iterations 4
GAMG:  Solving for p, Initial residual = 0.00112355, Final residual = 5.43428e-05, No Iterations 6
time step continuity errors : sum local = 3.07082e-08, global = 9.85187e-09, cumulative = -0.00058666
smoothSolver:  Solving for epsilon, Initial residual = 0.000101286, Final residual = 5.45913e-06, No Iterations 4
smoothSolver:  Solving for k, Initial residual = 0.000161919, Final residual = 9.33448e-06, No Iterations 6
ExecutionTime = 167.25 s  ClockTime = 168 s

Time = 798

smoothSolver:  Solving for Ux, Initial residual = 4.83807e-05, Final residual = 7.70026e-07, No Iterations 4
smoothSolver:  Solving for Uy, Initial residual = 4.18452e-06, Final residual = 3.5205e-07, No Iterations 2
smoothSolver:  Solving for Uz, Initial residual = 3.61778e-05, Final residual = 5.72642e-07, No Iterations 4
GAMG:  Solving for p, Initial residual = 0.00121023, Final residual = 5.31978e-05, No Iterations 6
time step continuity errors : sum local = 3.03175e-08, global = -9.61474e-09, cumulative = -0.00058667
smoothSolver:  Solving for epsilon, Initial residual = 8.29757e-05, Final residual = 6.90641e-06, No Iterations 4
smoothSolver:  Solving for k, Initial residual = 7.68459e-05, Final residual = 5.71747e-06, No Iterations 8
ExecutionTime = 167.44 s  ClockTime = 168 s

Time = 799

smoothSolver:  Solving for Ux, Initial residual = 5.20837e-05, Final residual = 7.84618e-07, No Iterations 4
smoothSolver:  Solving for Uy, Initial residual = 4.53608e-06, Final residual = 3.5388e-07, No Iterations 2
smoothSolver:  Solving for Uz, Initial residual = 3.90232e-05, Final residual = 5.78208e-07, No Iterations 4
GAMG:  Solving for p, Initial residual = 0.00111525, Final residual = 2.1469e-05, No Iterations 8
time step continuity errors : sum local = 1.21303e-08, global = 3.6159e-09, cumulative = -0.000586666
smoothSolver:  Solving for epsilon, Initial residual = 0.000101168, Final residual = 5.4575e-06, No Iterations 4
smoothSolver:  Solving for k, Initial residual = 0.000161945, Final residual = 9.32673e-06, No Iterations 6
ExecutionTime = 167.65 s  ClockTime = 168 s

Time = 800

smoothSolver:  Solving for Ux, Initial residual = 4.83633e-05, Final residual = 7.69466e-07, No Iterations 4
smoothSolver:  Solving for Uy, Initial residual = 4.36654e-06, Final residual = 3.63292e-07, No Iterations 2
smoothSolver:  Solving for Uz, Initial residual = 3.56345e-05, Final residual = 5.54986e-07, No Iterations 4
GAMG:  Solving for p, Initial residual = 0.0012094, Final residual = 5.46778e-05, No Iterations 6
time step continuity errors : sum local = 3.11666e-08, global = -9.89442e-09, cumulative = -0.000586676
smoothSolver:  Solving for epsilon, Initial residual = 8.31321e-05, Final residual = 6.91684e-06, No Iterations 4
smoothSolver:  Solving for k, Initial residual = 7.68039e-05, Final residual = 5.71717e-06, No Iterations 8
ExecutionTime = 167.84 s  ClockTime = 169 s

End

Finalising parallel run
